<?xml version="1.0" encoding="UTF-8"?>
<types>
   <type id="calleTipo1" priority="1" numLanes="3" speed="50"/>
</types>