<?xml version="1.0" encoding="UTF-8"?>

<!-- generated on 10/02/13 09:11:07 by SUMO duarouter Version dev-SVN-rUNKNOWN
<?xml version="1.0" encoding="UTF-8"?>

<configuration xmlns:xsi="http://www.w3.org/2001/XMLSchema-instance" xsi:noNamespaceSchemaLocation="http://sumo-sim.org/xsd/duarouterConfiguration.xsd">

    <input>
        <net-file value="interseccion_aislada.net.xml"/>
        <flow-files value="interseccion_aislada.trips.xml"/>
    </input>

    <output>
        <output-file value="interseccion_aislada.rou.xml"/>
    </output>

    <processing>
        <ignore-errors value="true"/>
    </processing>

</configuration>
-->

<routes xmlns:xsi="http://www.w3.org/2001/XMLSchema-instance" xsi:noNamespaceSchemaLocation="http://sumo-sim.org/xsd/routes_file.xsd">
    <vehicle id="O12.0" depart="0.00">
        <route edges="O1a aO2"/>
    </vehicle>
    <vehicle id="O13.0" depart="0.00">
        <route edges="O1a aO3"/>
    </vehicle>
    <vehicle id="O14.0" depart="0.00">
        <route edges="O1a aO4"/>
    </vehicle>
    <vehicle id="O31.0" depart="0.00">
        <route edges="O3a aO1"/>
    </vehicle>
    <vehicle id="O32.0" depart="0.00">
        <route edges="O3a aO2"/>
    </vehicle>
    <vehicle id="O34.0" depart="0.00">
        <route edges="O3a aO4"/>
    </vehicle>
    <vehicle id="O41.0" depart="0.00">
        <route edges="O4a aO1"/>
    </vehicle>
    <vehicle id="O42.0" depart="0.00">
        <route edges="O4a aO2"/>
    </vehicle>
    <vehicle id="O43.0" depart="0.00">
        <route edges="O4a aO3"/>
    </vehicle>
    <vehicle id="O12.1" depart="7.83">
        <route edges="O1a aO2"/>
    </vehicle>
    <vehicle id="O13.1" depart="7.83">
        <route edges="O1a aO3"/>
    </vehicle>
    <vehicle id="O14.1" depart="7.83">
        <route edges="O1a aO4"/>
    </vehicle>
    <vehicle id="O31.1" depart="7.83">
        <route edges="O3a aO1"/>
    </vehicle>
    <vehicle id="O32.1" depart="7.83">
        <route edges="O3a aO2"/>
    </vehicle>
    <vehicle id="O34.1" depart="7.83">
        <route edges="O3a aO4"/>
    </vehicle>
    <vehicle id="O41.1" depart="7.83">
        <route edges="O4a aO1"/>
    </vehicle>
    <vehicle id="O42.1" depart="7.83">
        <route edges="O4a aO2"/>
    </vehicle>
    <vehicle id="O43.1" depart="7.83">
        <route edges="O4a aO3"/>
    </vehicle>
    <vehicle id="O12.2" depart="15.65">
        <route edges="O1a aO2"/>
    </vehicle>
    <vehicle id="O13.2" depart="15.65">
        <route edges="O1a aO3"/>
    </vehicle>
    <vehicle id="O14.2" depart="15.65">
        <route edges="O1a aO4"/>
    </vehicle>
    <vehicle id="O31.2" depart="15.65">
        <route edges="O3a aO1"/>
    </vehicle>
    <vehicle id="O32.2" depart="15.65">
        <route edges="O3a aO2"/>
    </vehicle>
    <vehicle id="O34.2" depart="15.65">
        <route edges="O3a aO4"/>
    </vehicle>
    <vehicle id="O41.2" depart="15.65">
        <route edges="O4a aO1"/>
    </vehicle>
    <vehicle id="O42.2" depart="15.65">
        <route edges="O4a aO2"/>
    </vehicle>
    <vehicle id="O43.2" depart="15.65">
        <route edges="O4a aO3"/>
    </vehicle>
    <vehicle id="O12.3" depart="23.48">
        <route edges="O1a aO2"/>
    </vehicle>
    <vehicle id="O13.3" depart="23.48">
        <route edges="O1a aO3"/>
    </vehicle>
    <vehicle id="O14.3" depart="23.48">
        <route edges="O1a aO4"/>
    </vehicle>
    <vehicle id="O31.3" depart="23.48">
        <route edges="O3a aO1"/>
    </vehicle>
    <vehicle id="O32.3" depart="23.48">
        <route edges="O3a aO2"/>
    </vehicle>
    <vehicle id="O34.3" depart="23.48">
        <route edges="O3a aO4"/>
    </vehicle>
    <vehicle id="O41.3" depart="23.48">
        <route edges="O4a aO1"/>
    </vehicle>
    <vehicle id="O42.3" depart="23.48">
        <route edges="O4a aO2"/>
    </vehicle>
    <vehicle id="O43.3" depart="23.48">
        <route edges="O4a aO3"/>
    </vehicle>
    <vehicle id="O12.4" depart="31.30">
        <route edges="O1a aO2"/>
    </vehicle>
    <vehicle id="O13.4" depart="31.30">
        <route edges="O1a aO3"/>
    </vehicle>
    <vehicle id="O14.4" depart="31.30">
        <route edges="O1a aO4"/>
    </vehicle>
    <vehicle id="O31.4" depart="31.30">
        <route edges="O3a aO1"/>
    </vehicle>
    <vehicle id="O32.4" depart="31.30">
        <route edges="O3a aO2"/>
    </vehicle>
    <vehicle id="O34.4" depart="31.30">
        <route edges="O3a aO4"/>
    </vehicle>
    <vehicle id="O41.4" depart="31.30">
        <route edges="O4a aO1"/>
    </vehicle>
    <vehicle id="O42.4" depart="31.30">
        <route edges="O4a aO2"/>
    </vehicle>
    <vehicle id="O43.4" depart="31.30">
        <route edges="O4a aO3"/>
    </vehicle>
    <vehicle id="O12.5" depart="39.13">
        <route edges="O1a aO2"/>
    </vehicle>
    <vehicle id="O13.5" depart="39.13">
        <route edges="O1a aO3"/>
    </vehicle>
    <vehicle id="O14.5" depart="39.13">
        <route edges="O1a aO4"/>
    </vehicle>
    <vehicle id="O31.5" depart="39.13">
        <route edges="O3a aO1"/>
    </vehicle>
    <vehicle id="O32.5" depart="39.13">
        <route edges="O3a aO2"/>
    </vehicle>
    <vehicle id="O34.5" depart="39.13">
        <route edges="O3a aO4"/>
    </vehicle>
    <vehicle id="O41.5" depart="39.13">
        <route edges="O4a aO1"/>
    </vehicle>
    <vehicle id="O42.5" depart="39.13">
        <route edges="O4a aO2"/>
    </vehicle>
    <vehicle id="O43.5" depart="39.13">
        <route edges="O4a aO3"/>
    </vehicle>
    <vehicle id="O12.6" depart="46.96">
        <route edges="O1a aO2"/>
    </vehicle>
    <vehicle id="O13.6" depart="46.96">
        <route edges="O1a aO3"/>
    </vehicle>
    <vehicle id="O14.6" depart="46.96">
        <route edges="O1a aO4"/>
    </vehicle>
    <vehicle id="O31.6" depart="46.96">
        <route edges="O3a aO1"/>
    </vehicle>
    <vehicle id="O32.6" depart="46.96">
        <route edges="O3a aO2"/>
    </vehicle>
    <vehicle id="O34.6" depart="46.96">
        <route edges="O3a aO4"/>
    </vehicle>
    <vehicle id="O41.6" depart="46.96">
        <route edges="O4a aO1"/>
    </vehicle>
    <vehicle id="O42.6" depart="46.96">
        <route edges="O4a aO2"/>
    </vehicle>
    <vehicle id="O43.6" depart="46.96">
        <route edges="O4a aO3"/>
    </vehicle>
    <vehicle id="O12.7" depart="54.78">
        <route edges="O1a aO2"/>
    </vehicle>
    <vehicle id="O13.7" depart="54.78">
        <route edges="O1a aO3"/>
    </vehicle>
    <vehicle id="O14.7" depart="54.78">
        <route edges="O1a aO4"/>
    </vehicle>
    <vehicle id="O31.7" depart="54.78">
        <route edges="O3a aO1"/>
    </vehicle>
    <vehicle id="O32.7" depart="54.78">
        <route edges="O3a aO2"/>
    </vehicle>
    <vehicle id="O34.7" depart="54.78">
        <route edges="O3a aO4"/>
    </vehicle>
    <vehicle id="O41.7" depart="54.78">
        <route edges="O4a aO1"/>
    </vehicle>
    <vehicle id="O42.7" depart="54.78">
        <route edges="O4a aO2"/>
    </vehicle>
    <vehicle id="O43.7" depart="54.78">
        <route edges="O4a aO3"/>
    </vehicle>
    <vehicle id="O12.8" depart="62.61">
        <route edges="O1a aO2"/>
    </vehicle>
    <vehicle id="O13.8" depart="62.61">
        <route edges="O1a aO3"/>
    </vehicle>
    <vehicle id="O14.8" depart="62.61">
        <route edges="O1a aO4"/>
    </vehicle>
    <vehicle id="O31.8" depart="62.61">
        <route edges="O3a aO1"/>
    </vehicle>
    <vehicle id="O32.8" depart="62.61">
        <route edges="O3a aO2"/>
    </vehicle>
    <vehicle id="O34.8" depart="62.61">
        <route edges="O3a aO4"/>
    </vehicle>
    <vehicle id="O41.8" depart="62.61">
        <route edges="O4a aO1"/>
    </vehicle>
    <vehicle id="O42.8" depart="62.61">
        <route edges="O4a aO2"/>
    </vehicle>
    <vehicle id="O43.8" depart="62.61">
        <route edges="O4a aO3"/>
    </vehicle>
    <vehicle id="O12.9" depart="70.43">
        <route edges="O1a aO2"/>
    </vehicle>
    <vehicle id="O13.9" depart="70.43">
        <route edges="O1a aO3"/>
    </vehicle>
    <vehicle id="O14.9" depart="70.43">
        <route edges="O1a aO4"/>
    </vehicle>
    <vehicle id="O31.9" depart="70.43">
        <route edges="O3a aO1"/>
    </vehicle>
    <vehicle id="O32.9" depart="70.43">
        <route edges="O3a aO2"/>
    </vehicle>
    <vehicle id="O34.9" depart="70.43">
        <route edges="O3a aO4"/>
    </vehicle>
    <vehicle id="O41.9" depart="70.43">
        <route edges="O4a aO1"/>
    </vehicle>
    <vehicle id="O42.9" depart="70.43">
        <route edges="O4a aO2"/>
    </vehicle>
    <vehicle id="O43.9" depart="70.43">
        <route edges="O4a aO3"/>
    </vehicle>
    <vehicle id="O12.10" depart="78.26">
        <route edges="O1a aO2"/>
    </vehicle>
    <vehicle id="O13.10" depart="78.26">
        <route edges="O1a aO3"/>
    </vehicle>
    <vehicle id="O14.10" depart="78.26">
        <route edges="O1a aO4"/>
    </vehicle>
    <vehicle id="O31.10" depart="78.26">
        <route edges="O3a aO1"/>
    </vehicle>
    <vehicle id="O32.10" depart="78.26">
        <route edges="O3a aO2"/>
    </vehicle>
    <vehicle id="O34.10" depart="78.26">
        <route edges="O3a aO4"/>
    </vehicle>
    <vehicle id="O41.10" depart="78.26">
        <route edges="O4a aO1"/>
    </vehicle>
    <vehicle id="O42.10" depart="78.26">
        <route edges="O4a aO2"/>
    </vehicle>
    <vehicle id="O43.10" depart="78.26">
        <route edges="O4a aO3"/>
    </vehicle>
    <vehicle id="O12.11" depart="86.09">
        <route edges="O1a aO2"/>
    </vehicle>
    <vehicle id="O13.11" depart="86.09">
        <route edges="O1a aO3"/>
    </vehicle>
    <vehicle id="O14.11" depart="86.09">
        <route edges="O1a aO4"/>
    </vehicle>
    <vehicle id="O31.11" depart="86.09">
        <route edges="O3a aO1"/>
    </vehicle>
    <vehicle id="O32.11" depart="86.09">
        <route edges="O3a aO2"/>
    </vehicle>
    <vehicle id="O34.11" depart="86.09">
        <route edges="O3a aO4"/>
    </vehicle>
    <vehicle id="O41.11" depart="86.09">
        <route edges="O4a aO1"/>
    </vehicle>
    <vehicle id="O42.11" depart="86.09">
        <route edges="O4a aO2"/>
    </vehicle>
    <vehicle id="O43.11" depart="86.09">
        <route edges="O4a aO3"/>
    </vehicle>
    <vehicle id="O12.12" depart="93.91">
        <route edges="O1a aO2"/>
    </vehicle>
    <vehicle id="O13.12" depart="93.91">
        <route edges="O1a aO3"/>
    </vehicle>
    <vehicle id="O14.12" depart="93.91">
        <route edges="O1a aO4"/>
    </vehicle>
    <vehicle id="O31.12" depart="93.91">
        <route edges="O3a aO1"/>
    </vehicle>
    <vehicle id="O32.12" depart="93.91">
        <route edges="O3a aO2"/>
    </vehicle>
    <vehicle id="O34.12" depart="93.91">
        <route edges="O3a aO4"/>
    </vehicle>
    <vehicle id="O41.12" depart="93.91">
        <route edges="O4a aO1"/>
    </vehicle>
    <vehicle id="O42.12" depart="93.91">
        <route edges="O4a aO2"/>
    </vehicle>
    <vehicle id="O43.12" depart="93.91">
        <route edges="O4a aO3"/>
    </vehicle>
    <vehicle id="O12.13" depart="101.74">
        <route edges="O1a aO2"/>
    </vehicle>
    <vehicle id="O13.13" depart="101.74">
        <route edges="O1a aO3"/>
    </vehicle>
    <vehicle id="O14.13" depart="101.74">
        <route edges="O1a aO4"/>
    </vehicle>
    <vehicle id="O31.13" depart="101.74">
        <route edges="O3a aO1"/>
    </vehicle>
    <vehicle id="O32.13" depart="101.74">
        <route edges="O3a aO2"/>
    </vehicle>
    <vehicle id="O34.13" depart="101.74">
        <route edges="O3a aO4"/>
    </vehicle>
    <vehicle id="O41.13" depart="101.74">
        <route edges="O4a aO1"/>
    </vehicle>
    <vehicle id="O42.13" depart="101.74">
        <route edges="O4a aO2"/>
    </vehicle>
    <vehicle id="O43.13" depart="101.74">
        <route edges="O4a aO3"/>
    </vehicle>
    <vehicle id="O12.14" depart="109.56">
        <route edges="O1a aO2"/>
    </vehicle>
    <vehicle id="O13.14" depart="109.56">
        <route edges="O1a aO3"/>
    </vehicle>
    <vehicle id="O14.14" depart="109.56">
        <route edges="O1a aO4"/>
    </vehicle>
    <vehicle id="O31.14" depart="109.56">
        <route edges="O3a aO1"/>
    </vehicle>
    <vehicle id="O32.14" depart="109.56">
        <route edges="O3a aO2"/>
    </vehicle>
    <vehicle id="O34.14" depart="109.56">
        <route edges="O3a aO4"/>
    </vehicle>
    <vehicle id="O41.14" depart="109.56">
        <route edges="O4a aO1"/>
    </vehicle>
    <vehicle id="O42.14" depart="109.56">
        <route edges="O4a aO2"/>
    </vehicle>
    <vehicle id="O43.14" depart="109.56">
        <route edges="O4a aO3"/>
    </vehicle>
    <vehicle id="O12.15" depart="117.39">
        <route edges="O1a aO2"/>
    </vehicle>
    <vehicle id="O13.15" depart="117.39">
        <route edges="O1a aO3"/>
    </vehicle>
    <vehicle id="O14.15" depart="117.39">
        <route edges="O1a aO4"/>
    </vehicle>
    <vehicle id="O31.15" depart="117.39">
        <route edges="O3a aO1"/>
    </vehicle>
    <vehicle id="O32.15" depart="117.39">
        <route edges="O3a aO2"/>
    </vehicle>
    <vehicle id="O34.15" depart="117.39">
        <route edges="O3a aO4"/>
    </vehicle>
    <vehicle id="O41.15" depart="117.39">
        <route edges="O4a aO1"/>
    </vehicle>
    <vehicle id="O42.15" depart="117.39">
        <route edges="O4a aO2"/>
    </vehicle>
    <vehicle id="O43.15" depart="117.39">
        <route edges="O4a aO3"/>
    </vehicle>
    <vehicle id="O12.16" depart="125.22">
        <route edges="O1a aO2"/>
    </vehicle>
    <vehicle id="O13.16" depart="125.22">
        <route edges="O1a aO3"/>
    </vehicle>
    <vehicle id="O14.16" depart="125.22">
        <route edges="O1a aO4"/>
    </vehicle>
    <vehicle id="O31.16" depart="125.22">
        <route edges="O3a aO1"/>
    </vehicle>
    <vehicle id="O32.16" depart="125.22">
        <route edges="O3a aO2"/>
    </vehicle>
    <vehicle id="O34.16" depart="125.22">
        <route edges="O3a aO4"/>
    </vehicle>
    <vehicle id="O41.16" depart="125.22">
        <route edges="O4a aO1"/>
    </vehicle>
    <vehicle id="O42.16" depart="125.22">
        <route edges="O4a aO2"/>
    </vehicle>
    <vehicle id="O43.16" depart="125.22">
        <route edges="O4a aO3"/>
    </vehicle>
    <vehicle id="O12.17" depart="133.04">
        <route edges="O1a aO2"/>
    </vehicle>
    <vehicle id="O13.17" depart="133.04">
        <route edges="O1a aO3"/>
    </vehicle>
    <vehicle id="O14.17" depart="133.04">
        <route edges="O1a aO4"/>
    </vehicle>
    <vehicle id="O31.17" depart="133.04">
        <route edges="O3a aO1"/>
    </vehicle>
    <vehicle id="O32.17" depart="133.04">
        <route edges="O3a aO2"/>
    </vehicle>
    <vehicle id="O34.17" depart="133.04">
        <route edges="O3a aO4"/>
    </vehicle>
    <vehicle id="O41.17" depart="133.04">
        <route edges="O4a aO1"/>
    </vehicle>
    <vehicle id="O42.17" depart="133.04">
        <route edges="O4a aO2"/>
    </vehicle>
    <vehicle id="O43.17" depart="133.04">
        <route edges="O4a aO3"/>
    </vehicle>
    <vehicle id="O12.18" depart="140.87">
        <route edges="O1a aO2"/>
    </vehicle>
    <vehicle id="O13.18" depart="140.87">
        <route edges="O1a aO3"/>
    </vehicle>
    <vehicle id="O14.18" depart="140.87">
        <route edges="O1a aO4"/>
    </vehicle>
    <vehicle id="O31.18" depart="140.87">
        <route edges="O3a aO1"/>
    </vehicle>
    <vehicle id="O32.18" depart="140.87">
        <route edges="O3a aO2"/>
    </vehicle>
    <vehicle id="O34.18" depart="140.87">
        <route edges="O3a aO4"/>
    </vehicle>
    <vehicle id="O41.18" depart="140.87">
        <route edges="O4a aO1"/>
    </vehicle>
    <vehicle id="O42.18" depart="140.87">
        <route edges="O4a aO2"/>
    </vehicle>
    <vehicle id="O43.18" depart="140.87">
        <route edges="O4a aO3"/>
    </vehicle>
    <vehicle id="O12.19" depart="148.69">
        <route edges="O1a aO2"/>
    </vehicle>
    <vehicle id="O13.19" depart="148.69">
        <route edges="O1a aO3"/>
    </vehicle>
    <vehicle id="O14.19" depart="148.69">
        <route edges="O1a aO4"/>
    </vehicle>
    <vehicle id="O31.19" depart="148.69">
        <route edges="O3a aO1"/>
    </vehicle>
    <vehicle id="O32.19" depart="148.69">
        <route edges="O3a aO2"/>
    </vehicle>
    <vehicle id="O34.19" depart="148.69">
        <route edges="O3a aO4"/>
    </vehicle>
    <vehicle id="O41.19" depart="148.69">
        <route edges="O4a aO1"/>
    </vehicle>
    <vehicle id="O42.19" depart="148.69">
        <route edges="O4a aO2"/>
    </vehicle>
    <vehicle id="O43.19" depart="148.69">
        <route edges="O4a aO3"/>
    </vehicle>
    <vehicle id="O12.20" depart="156.52">
        <route edges="O1a aO2"/>
    </vehicle>
    <vehicle id="O13.20" depart="156.52">
        <route edges="O1a aO3"/>
    </vehicle>
    <vehicle id="O14.20" depart="156.52">
        <route edges="O1a aO4"/>
    </vehicle>
    <vehicle id="O31.20" depart="156.52">
        <route edges="O3a aO1"/>
    </vehicle>
    <vehicle id="O32.20" depart="156.52">
        <route edges="O3a aO2"/>
    </vehicle>
    <vehicle id="O34.20" depart="156.52">
        <route edges="O3a aO4"/>
    </vehicle>
    <vehicle id="O41.20" depart="156.52">
        <route edges="O4a aO1"/>
    </vehicle>
    <vehicle id="O42.20" depart="156.52">
        <route edges="O4a aO2"/>
    </vehicle>
    <vehicle id="O43.20" depart="156.52">
        <route edges="O4a aO3"/>
    </vehicle>
    <vehicle id="O12.21" depart="164.35">
        <route edges="O1a aO2"/>
    </vehicle>
    <vehicle id="O13.21" depart="164.35">
        <route edges="O1a aO3"/>
    </vehicle>
    <vehicle id="O14.21" depart="164.35">
        <route edges="O1a aO4"/>
    </vehicle>
    <vehicle id="O31.21" depart="164.35">
        <route edges="O3a aO1"/>
    </vehicle>
    <vehicle id="O32.21" depart="164.35">
        <route edges="O3a aO2"/>
    </vehicle>
    <vehicle id="O34.21" depart="164.35">
        <route edges="O3a aO4"/>
    </vehicle>
    <vehicle id="O41.21" depart="164.35">
        <route edges="O4a aO1"/>
    </vehicle>
    <vehicle id="O42.21" depart="164.35">
        <route edges="O4a aO2"/>
    </vehicle>
    <vehicle id="O43.21" depart="164.35">
        <route edges="O4a aO3"/>
    </vehicle>
    <vehicle id="O12.22" depart="172.17">
        <route edges="O1a aO2"/>
    </vehicle>
    <vehicle id="O13.22" depart="172.17">
        <route edges="O1a aO3"/>
    </vehicle>
    <vehicle id="O14.22" depart="172.17">
        <route edges="O1a aO4"/>
    </vehicle>
    <vehicle id="O31.22" depart="172.17">
        <route edges="O3a aO1"/>
    </vehicle>
    <vehicle id="O32.22" depart="172.17">
        <route edges="O3a aO2"/>
    </vehicle>
    <vehicle id="O34.22" depart="172.17">
        <route edges="O3a aO4"/>
    </vehicle>
    <vehicle id="O41.22" depart="172.17">
        <route edges="O4a aO1"/>
    </vehicle>
    <vehicle id="O42.22" depart="172.17">
        <route edges="O4a aO2"/>
    </vehicle>
    <vehicle id="O43.22" depart="172.17">
        <route edges="O4a aO3"/>
    </vehicle>
    <vehicle id="O12.23" depart="180.00">
        <route edges="O1a aO2"/>
    </vehicle>
    <vehicle id="O13.23" depart="180.00">
        <route edges="O1a aO3"/>
    </vehicle>
    <vehicle id="O14.23" depart="180.00">
        <route edges="O1a aO4"/>
    </vehicle>
    <vehicle id="O31.23" depart="180.00">
        <route edges="O3a aO1"/>
    </vehicle>
    <vehicle id="O32.23" depart="180.00">
        <route edges="O3a aO2"/>
    </vehicle>
    <vehicle id="O34.23" depart="180.00">
        <route edges="O3a aO4"/>
    </vehicle>
    <vehicle id="O41.23" depart="180.00">
        <route edges="O4a aO1"/>
    </vehicle>
    <vehicle id="O42.23" depart="180.00">
        <route edges="O4a aO2"/>
    </vehicle>
    <vehicle id="O43.23" depart="180.00">
        <route edges="O4a aO3"/>
    </vehicle>
    <vehicle id="O12.24" depart="187.82">
        <route edges="O1a aO2"/>
    </vehicle>
    <vehicle id="O13.24" depart="187.82">
        <route edges="O1a aO3"/>
    </vehicle>
    <vehicle id="O14.24" depart="187.82">
        <route edges="O1a aO4"/>
    </vehicle>
    <vehicle id="O31.24" depart="187.82">
        <route edges="O3a aO1"/>
    </vehicle>
    <vehicle id="O32.24" depart="187.82">
        <route edges="O3a aO2"/>
    </vehicle>
    <vehicle id="O34.24" depart="187.82">
        <route edges="O3a aO4"/>
    </vehicle>
    <vehicle id="O41.24" depart="187.82">
        <route edges="O4a aO1"/>
    </vehicle>
    <vehicle id="O42.24" depart="187.82">
        <route edges="O4a aO2"/>
    </vehicle>
    <vehicle id="O43.24" depart="187.82">
        <route edges="O4a aO3"/>
    </vehicle>
    <vehicle id="O12.25" depart="195.65">
        <route edges="O1a aO2"/>
    </vehicle>
    <vehicle id="O13.25" depart="195.65">
        <route edges="O1a aO3"/>
    </vehicle>
    <vehicle id="O14.25" depart="195.65">
        <route edges="O1a aO4"/>
    </vehicle>
    <vehicle id="O31.25" depart="195.65">
        <route edges="O3a aO1"/>
    </vehicle>
    <vehicle id="O32.25" depart="195.65">
        <route edges="O3a aO2"/>
    </vehicle>
    <vehicle id="O34.25" depart="195.65">
        <route edges="O3a aO4"/>
    </vehicle>
    <vehicle id="O41.25" depart="195.65">
        <route edges="O4a aO1"/>
    </vehicle>
    <vehicle id="O42.25" depart="195.65">
        <route edges="O4a aO2"/>
    </vehicle>
    <vehicle id="O43.25" depart="195.65">
        <route edges="O4a aO3"/>
    </vehicle>
    <vehicle id="O12.26" depart="203.48">
        <route edges="O1a aO2"/>
    </vehicle>
    <vehicle id="O13.26" depart="203.48">
        <route edges="O1a aO3"/>
    </vehicle>
    <vehicle id="O14.26" depart="203.48">
        <route edges="O1a aO4"/>
    </vehicle>
    <vehicle id="O31.26" depart="203.48">
        <route edges="O3a aO1"/>
    </vehicle>
    <vehicle id="O32.26" depart="203.48">
        <route edges="O3a aO2"/>
    </vehicle>
    <vehicle id="O34.26" depart="203.48">
        <route edges="O3a aO4"/>
    </vehicle>
    <vehicle id="O41.26" depart="203.48">
        <route edges="O4a aO1"/>
    </vehicle>
    <vehicle id="O42.26" depart="203.48">
        <route edges="O4a aO2"/>
    </vehicle>
    <vehicle id="O43.26" depart="203.48">
        <route edges="O4a aO3"/>
    </vehicle>
    <vehicle id="O12.27" depart="211.30">
        <route edges="O1a aO2"/>
    </vehicle>
    <vehicle id="O13.27" depart="211.30">
        <route edges="O1a aO3"/>
    </vehicle>
    <vehicle id="O14.27" depart="211.30">
        <route edges="O1a aO4"/>
    </vehicle>
    <vehicle id="O31.27" depart="211.30">
        <route edges="O3a aO1"/>
    </vehicle>
    <vehicle id="O32.27" depart="211.30">
        <route edges="O3a aO2"/>
    </vehicle>
    <vehicle id="O34.27" depart="211.30">
        <route edges="O3a aO4"/>
    </vehicle>
    <vehicle id="O41.27" depart="211.30">
        <route edges="O4a aO1"/>
    </vehicle>
    <vehicle id="O42.27" depart="211.30">
        <route edges="O4a aO2"/>
    </vehicle>
    <vehicle id="O43.27" depart="211.30">
        <route edges="O4a aO3"/>
    </vehicle>
    <vehicle id="O12.28" depart="219.13">
        <route edges="O1a aO2"/>
    </vehicle>
    <vehicle id="O13.28" depart="219.13">
        <route edges="O1a aO3"/>
    </vehicle>
    <vehicle id="O14.28" depart="219.13">
        <route edges="O1a aO4"/>
    </vehicle>
    <vehicle id="O31.28" depart="219.13">
        <route edges="O3a aO1"/>
    </vehicle>
    <vehicle id="O32.28" depart="219.13">
        <route edges="O3a aO2"/>
    </vehicle>
    <vehicle id="O34.28" depart="219.13">
        <route edges="O3a aO4"/>
    </vehicle>
    <vehicle id="O41.28" depart="219.13">
        <route edges="O4a aO1"/>
    </vehicle>
    <vehicle id="O42.28" depart="219.13">
        <route edges="O4a aO2"/>
    </vehicle>
    <vehicle id="O43.28" depart="219.13">
        <route edges="O4a aO3"/>
    </vehicle>
    <vehicle id="O12.29" depart="226.95">
        <route edges="O1a aO2"/>
    </vehicle>
    <vehicle id="O13.29" depart="226.95">
        <route edges="O1a aO3"/>
    </vehicle>
    <vehicle id="O14.29" depart="226.95">
        <route edges="O1a aO4"/>
    </vehicle>
    <vehicle id="O31.29" depart="226.95">
        <route edges="O3a aO1"/>
    </vehicle>
    <vehicle id="O32.29" depart="226.95">
        <route edges="O3a aO2"/>
    </vehicle>
    <vehicle id="O34.29" depart="226.95">
        <route edges="O3a aO4"/>
    </vehicle>
    <vehicle id="O41.29" depart="226.95">
        <route edges="O4a aO1"/>
    </vehicle>
    <vehicle id="O42.29" depart="226.95">
        <route edges="O4a aO2"/>
    </vehicle>
    <vehicle id="O43.29" depart="226.95">
        <route edges="O4a aO3"/>
    </vehicle>
    <vehicle id="O12.30" depart="234.78">
        <route edges="O1a aO2"/>
    </vehicle>
    <vehicle id="O13.30" depart="234.78">
        <route edges="O1a aO3"/>
    </vehicle>
    <vehicle id="O14.30" depart="234.78">
        <route edges="O1a aO4"/>
    </vehicle>
    <vehicle id="O31.30" depart="234.78">
        <route edges="O3a aO1"/>
    </vehicle>
    <vehicle id="O32.30" depart="234.78">
        <route edges="O3a aO2"/>
    </vehicle>
    <vehicle id="O34.30" depart="234.78">
        <route edges="O3a aO4"/>
    </vehicle>
    <vehicle id="O41.30" depart="234.78">
        <route edges="O4a aO1"/>
    </vehicle>
    <vehicle id="O42.30" depart="234.78">
        <route edges="O4a aO2"/>
    </vehicle>
    <vehicle id="O43.30" depart="234.78">
        <route edges="O4a aO3"/>
    </vehicle>
    <vehicle id="O12.31" depart="242.61">
        <route edges="O1a aO2"/>
    </vehicle>
    <vehicle id="O13.31" depart="242.61">
        <route edges="O1a aO3"/>
    </vehicle>
    <vehicle id="O14.31" depart="242.61">
        <route edges="O1a aO4"/>
    </vehicle>
    <vehicle id="O31.31" depart="242.61">
        <route edges="O3a aO1"/>
    </vehicle>
    <vehicle id="O32.31" depart="242.61">
        <route edges="O3a aO2"/>
    </vehicle>
    <vehicle id="O34.31" depart="242.61">
        <route edges="O3a aO4"/>
    </vehicle>
    <vehicle id="O41.31" depart="242.61">
        <route edges="O4a aO1"/>
    </vehicle>
    <vehicle id="O42.31" depart="242.61">
        <route edges="O4a aO2"/>
    </vehicle>
    <vehicle id="O43.31" depart="242.61">
        <route edges="O4a aO3"/>
    </vehicle>
    <vehicle id="O12.32" depart="250.43">
        <route edges="O1a aO2"/>
    </vehicle>
    <vehicle id="O13.32" depart="250.43">
        <route edges="O1a aO3"/>
    </vehicle>
    <vehicle id="O14.32" depart="250.43">
        <route edges="O1a aO4"/>
    </vehicle>
    <vehicle id="O31.32" depart="250.43">
        <route edges="O3a aO1"/>
    </vehicle>
    <vehicle id="O32.32" depart="250.43">
        <route edges="O3a aO2"/>
    </vehicle>
    <vehicle id="O34.32" depart="250.43">
        <route edges="O3a aO4"/>
    </vehicle>
    <vehicle id="O41.32" depart="250.43">
        <route edges="O4a aO1"/>
    </vehicle>
    <vehicle id="O42.32" depart="250.43">
        <route edges="O4a aO2"/>
    </vehicle>
    <vehicle id="O43.32" depart="250.43">
        <route edges="O4a aO3"/>
    </vehicle>
    <vehicle id="O12.33" depart="258.26">
        <route edges="O1a aO2"/>
    </vehicle>
    <vehicle id="O13.33" depart="258.26">
        <route edges="O1a aO3"/>
    </vehicle>
    <vehicle id="O14.33" depart="258.26">
        <route edges="O1a aO4"/>
    </vehicle>
    <vehicle id="O31.33" depart="258.26">
        <route edges="O3a aO1"/>
    </vehicle>
    <vehicle id="O32.33" depart="258.26">
        <route edges="O3a aO2"/>
    </vehicle>
    <vehicle id="O34.33" depart="258.26">
        <route edges="O3a aO4"/>
    </vehicle>
    <vehicle id="O41.33" depart="258.26">
        <route edges="O4a aO1"/>
    </vehicle>
    <vehicle id="O42.33" depart="258.26">
        <route edges="O4a aO2"/>
    </vehicle>
    <vehicle id="O43.33" depart="258.26">
        <route edges="O4a aO3"/>
    </vehicle>
    <vehicle id="O12.34" depart="266.08">
        <route edges="O1a aO2"/>
    </vehicle>
    <vehicle id="O13.34" depart="266.08">
        <route edges="O1a aO3"/>
    </vehicle>
    <vehicle id="O14.34" depart="266.08">
        <route edges="O1a aO4"/>
    </vehicle>
    <vehicle id="O31.34" depart="266.08">
        <route edges="O3a aO1"/>
    </vehicle>
    <vehicle id="O32.34" depart="266.08">
        <route edges="O3a aO2"/>
    </vehicle>
    <vehicle id="O34.34" depart="266.08">
        <route edges="O3a aO4"/>
    </vehicle>
    <vehicle id="O41.34" depart="266.08">
        <route edges="O4a aO1"/>
    </vehicle>
    <vehicle id="O42.34" depart="266.08">
        <route edges="O4a aO2"/>
    </vehicle>
    <vehicle id="O43.34" depart="266.08">
        <route edges="O4a aO3"/>
    </vehicle>
    <vehicle id="O12.35" depart="273.91">
        <route edges="O1a aO2"/>
    </vehicle>