<?xml version="1.0" encoding="UTF-8"?>

<!-- generated on 12/20/13 10:27:24 by SUMO netconvert Version 0.19.0
<?xml version="1.0" encoding="UTF-8"?>

<configuration xmlns:xsi="http://www.w3.org/2001/XMLSchema-instance" xsi:noNamespaceSchemaLocation="http://sumo-sim.org/xsd/netconvertConfiguration.xsd">

    <input>
        <node-files value="interseccion_aislada.nod.xml"/>
        <edge-files value="interseccion_aislada.edg.xml"/>
        <connection-files value="interseccion_aislada.con.xml"/>
        <type-files value="interseccion_aislada.typ.xml"/>
    </input>

    <output>
        <output-file value="interseccion_aislada.net.xml"/>
    </output>

    <processing>
        <no-turnarounds value="true"/>
    </processing>

</configuration>
-->

<net version="0.13" xmlns:xsi="http://www.w3.org/2001/XMLSchema-instance" xsi:noNamespaceSchemaLocation="http://sumo-sim.org/xsd/net_file.xsd">

    <location netOffset="452.00,452.00" convBoundary="0.00,0.00,904.00,904.00" origBoundary="-452.00,-452.00,452.00,452.00" projParameter="!"/>

    <edge id=":a_0" function="internal">
        <lane id=":a_0_0" index="0" speed="50.00" length="5.00" shape="443.75,463.35 443.56,461.99 442.98,461.02 442.01,460.44 440.65,460.25"/>
    </edge>
    <edge id=":a_1" function="internal">
        <lane id=":a_1_0" index="0" speed="50.00" length="22.70" shape="447.05,463.35 447.05,456.61 447.05,452.00 447.05,447.39 447.05,440.65"/>
    </edge>
    <edge id=":a_2" function="internal">
        <lane id=":a_2_0" index="0" speed="50.00" length="6.58" shape="450.35,463.35 451.16,457.66 451.59,456.95"/>
    </edge>
    <edge id=":a_12" function="internal">
        <lane id=":a_12_0" index="0" speed="50.00" length="14.39" shape="451.59,456.95 453.60,453.60 457.66,451.16 463.35,450.35"/>
    </edge>
    <edge id=":a_3" function="internal">
        <lane id=":a_3_0" index="0" speed="50.00" length="5.00" shape="463.35,460.25 461.99,460.44 461.02,461.02 460.44,461.99 460.25,463.35"/>
    </edge>
    <edge id=":a_4" function="internal">
        <lane id=":a_4_0" index="0" speed="50.00" length="22.70" shape="463.35,456.95 456.61,456.95 452.00,456.95 447.39,456.95 440.65,456.95"/>
    </edge>
    <edge id=":a_5" function="internal">
        <lane id=":a_5_0" index="0" speed="50.00" length="6.58" shape="463.35,453.65 457.66,452.84 456.95,452.41"/>
    </edge>
    <edge id=":a_13" function="internal">
        <lane id=":a_13_0" index="0" speed="50.00" length="14.39" shape="456.95,452.41 453.60,450.40 451.16,446.34 450.35,440.65"/>
    </edge>
    <edge id=":a_6" function="internal">
        <lane id=":a_6_0" index="0" speed="50.00" length="5.00" shape="460.25,440.65 460.44,442.01 461.02,442.98 461.99,443.56 463.35,443.75"/>
    </edge>
    <edge id=":a_7" function="internal">
        <lane id=":a_7_0" index="0" speed="50.00" length="22.70" shape="456.95,440.65 456.95,447.39 456.95,452.00 456.95,456.61 456.95,463.35"/>
    </edge>
    <edge id=":a_8" function="internal">
        <lane id=":a_8_0" index="0" speed="50.00" length="6.58" shape="453.65,440.65 452.84,446.34 452.41,447.05"/>
    </edge>
    <edge id=":a_14" function="internal">
        <lane id=":a_14_0" index="0" speed="50.00" length="14.39" shape="452.41,447.05 450.40,450.40 446.34,452.84 440.65,453.65"/>
    </edge>
    <edge id=":a_9" function="internal">
        <lane id=":a_9_0" index="0" speed="50.00" length="5.00" shape="440.65,443.75 442.01,443.56 442.98,442.98 443.56,442.01 443.75,440.65"/>
    </edge>
    <edge id=":a_10" function="internal">
        <lane id=":a_10_0" index="0" speed="50.00" length="22.70" shape="440.65,447.05 447.39,447.05 452.00,447.05 456.61,447.05 463.35,447.05"/>
    </edge>
    <edge id=":a_11" function="internal">
        <lane id=":a_11_0" index="0" speed="50.00" length="6.58" shape="440.65,450.35 446.34,451.16 447.05,451.59"/>
    </edge>
    <edge id=":a_15" function="internal">
        <lane id=":a_15_0" index="0" speed="50.00" length="14.39" shape="447.05,451.59 450.40,453.60 452.84,457.66 453.65,463.35"/>
    </edge>

    <edge id="O1a" from="O1" to="a" priority="1" type="calleTipo1">
        <lane id="O1a_0" index="0" speed="50.00" length="440.65" shape="443.75,904.00 443.75,463.35"/>
        <lane id="O1a_1" index="1" speed="50.00" length="440.65" shape="447.05,904.00 447.05,463.35"/>
        <lane id="O1a_2" index="2" speed="50.00" length="440.65" shape="450.35,904.00 450.35,463.35"/>
    </edge>
    <edge id="O2a" from="O2" to="a" priority="1" type="calleTipo1">
        <lane id="O2a_0" index="0" speed="50.00" length="440.65" shape="0.00,443.75 440.65,443.75"/>
        <lane id="O2a_1" index="1" speed="50.00" length="440.65" shape="0.00,447.05 440.65,447.05"/>
        <lane id="O2a_2" index="2" speed="50.00" length="440.65" shape="0.00,450.35 440.65,450.35"/>
    </edge>
    <edge id="O3a" from="O3" to="a" priority="1" type="calleTipo1">
        <lane id="O3a_0" index="0" speed="50.00" length="440.65" shape="904.00,460.25 463.35,460.25"/>
        <lane id="O3a_1" index="1" speed="50.00" length="440.65" shape="904.00,456.95 463.35,456.95"/>
        <lane id="O3a_2" index="2" speed="50.00" length="440.65" shape="904.00,453.65 463.35,453.65"/>
    </edge>
    <edge id="O4a" from="O4" to="a" priority="1" type="calleTipo1">
        <lane id="O4a_0" index="0" speed="50.00" length="440.65" shape="460.25,0.00 460.25,440.65"/>
        <lane id="O4a_1" index="1" speed="50.00" length="440.65" shape="456.95,0.00 456.95,440.65"/>
        <lane id="O4a_2" index="2" speed="50.00" length="440.65" shape="453.65,0.00 453.65,440.65"/>
    </edge>
    <edge id="aO1" from="a" to="O1" priority="1" type="calleTipo1">
        <lane id="aO1_0" index="0" speed="50.00" length="440.65" shape="460.25,463.35 460.25,904.00"/>
        <lane id="aO1_1" index="1" speed="50.00" length="440.65" shape="456.95,463.35 456.95,904.00"/>
        <lane id="aO1_2" index="2" speed="50.00" length="440.65" shape="453.65,463.35 453.65,904.00"/>
    </edge>
    <edge id="aO2" from="a" to="O2" priority="1" type="calleTipo1">
        <lane id="aO2_0" index="0" speed="50.00" length="440.65" shape="440.65,460.25 0.00,460.25"/>
        <lane id="aO2_1" index="1" speed="50.00" length="440.65" shape="440.65,456.95 0.00,456.95"/>
        <lane id="aO2_2" index="2" speed="50.00" length="440.65" shape="440.65,453.65 0.00,453.65"/>
    </edge>
    <edge id="aO3" from="a" to="O3" priority="1" type="calleTipo1">
        <lane id="aO3_0" index="0" speed="50.00" length="440.65" shape="463.35,443.75 904.00,443.75"/>
        <lane id="aO3_1" index="1" speed="50.00" length="440.65" shape="463.35,447.05 904.00,447.05"/>
        <lane id="aO3_2" index="2" speed="50.00" length="440.65" shape="463.35,450.35 904.00,450.35"/>
    </edge>
    <edge id="aO4" from="a" to="O4" priority="1" type="calleTipo1">
        <lane id="aO4_0" index="0" speed="50.00" length="440.65" shape="443.75,440.65 443.75,0.00"/>
        <lane id="aO4_1" index="1" speed="50.00" length="440.65" shape="447.05,440.65 447.05,0.00"/>
        <lane id="aO4_2" index="2" speed="50.00" length="440.65" shape="450.35,440.65 450.35,0.00"/>
    </edge>

    <tlLogic id="a" type="static" programID="0" offset="0">
        <phase duration="31" state="GGgGrrGGgGrr"/>
        <phase duration="16" state="yygyrryygyrr"/>
        <phase duration="6" state="rrGrrrrrGrrr"/>
        <phase duration="16" state="rryrrrrryrrr"/>
        <phase duration="31" state="GrrGGgGrrGGg"/>
        <phase duration="16" state="yrryygyrryyg"/>
        <phase duration="6" state="rrrrrGrrrrrG"/>
        <phase duration="16" state="rrrrryrrrrry"/>
    </tlLogic>

    <junction id="O1" type="dead_end" x="452.00" y="904.00" incLanes="aO1_0 aO1_1 aO1_2" intLanes="" shape="451.95,904.00 442.15,904.00 461.85,904.00 452.05,904.00"/>
    <junction id="O2" type="dead_end" x="0.00" y="452.00" incLanes="aO2_0 aO2_1 aO2_2" intLanes="" shape="-0.00,451.95 -0.00,442.15 0.00,461.85 0.00,452.05"/>
    <junction id="O3" type="dead_end" x="904.00" y="452.00" incLanes="aO3_0 aO3_1 aO3_2" intLanes="" shape="904.00,452.05 904.00,461.85 904.00,442.15 904.00,451.95"/>
    <junction id="O4" type="dead_end" x="452.00" y="0.00" incLanes="aO4_0 aO4_1 aO4_2" intLanes="" shape="452.05,-0.00 461.85,-0.00 442.15,0.00 451.95,0.00"/>
    <junction id="a" type="traffic_light" x="452.00" y="452.00" incLanes="O1a_0 O1a_1 O1a_2 O3a_0 O3a_1 O3a_2 O4a_0 O4a_1 O4a_2 O2a_0 O2a_1 O2a_2" intLanes=":a_0_0 :a_1_0 :a_12_0 :a_3_0 :a_4_0 :a_13_0 :a_6_0 :a_7_0 :a_14_0 :a_9_0 :a_10_0 :a_15_0" shape="442.15,463.35 461.85,463.35 463.35,461.85 463.35,442.15 461.85,440.65 442.15,440.65 440.65,442.15 440.65,461.85">
        <request index="0" response="000000000000" foes="000000000000" cont="0"/>
        <request index="1" response="000000000000" foes="110100010000" cont="0"/>
        <request index="2" response="000010000000" foes="100010110000" cont="1"/>
        <request index="3" response="000000000000" foes="000000000000" cont="0"/>
        <request index="4" response="000010000110" foes="100010000110" cont="0"/>
        <request index="5" response="010110000100" foes="010110000100" cont="1"/>
        <request index="6" response="000000000000" foes="000000000000" cont="0"/>
        <request index="7" response="000000000000" foes="010000110100" cont="0"/>
        <request index="8" response="000000000010" foes="110000100010" cont="1"/>
        <request index="9" response="000000000000" foes="000000000000" cont="0"/>
        <request index="10" response="000110000010" foes="000110100010" cont="0"/>
        <request index="11" response="000100010110" foes="000100010110" cont="1"/>
    </junction>

    <junction id=":a_12_0" type="internal" x="451.59" y="456.95" incLanes=":a_2_0 O4a_1" intLanes=":a_4_0 :a_5_0 :a_7_0 :a_11_0"/>
    <junction id=":a_13_0" type="internal" x="456.95" y="452.41" incLanes=":a_5_0 O2a_1 O4a_1" intLanes=":a_2_0 :a_7_0 :a_8_0 :a_10_0"/>
    <junction id=":a_14_0" type="internal" x="452.41" y="447.05" incLanes=":a_8_0 O1a_1" intLanes=":a_1_0 :a_5_0 :a_10_0 :a_11_0"/>
    <junction id=":a_15_0" type="internal" x="447.05" y="451.59" incLanes=":a_11_0 O1a_1 O3a_1" intLanes=":a_1_0 :a_2_0 :a_4_0 :a_8_0"/>

    <connection from="O1a" to="aO2" fromLane="0" toLane="0" via=":a_0_0" tl="a" linkIndex="0" dir="r" state="o"/>
    <connection from="O1a" to="aO4" fromLane="1" toLane="1" via=":a_1_0" tl="a" linkIndex="1" dir="s" state="o"/>
    <connection from="O1a" to="aO3" fromLane="2" toLane="2" via=":a_2_0" tl="a" linkIndex="2" dir="l" state="o"/>
    <connection from="O2a" to="aO4" fromLane="0" toLane="0" via=":a_9_0" tl="a" linkIndex="9" dir="r" state="o"/>
    <connection from="O2a" to="aO3" fromLane="1" toLane="1" via=":a_10_0" tl="a" linkIndex="10" dir="s" state="o"/>
    <connection from="O2a" to="aO1" fromLane="2" toLane="2" via=":a_11_0" tl="a" linkIndex="11" dir="l" state="o"/>
    <connection from="O3a" to="aO1" fromLane="0" toLane="0" via=":a_3_0" tl="a" linkIndex="3" dir="r" state="o"/>
    <connection from="O3a" to="aO2" fromLane="1" toLane="1" via=":a_4_0" tl="a" linkIndex="4" dir="s" state="o"/>
    <connection from="O3a" to="aO4" fromLane="2" toLane="2" via=":a_5_0" tl="a" linkIndex="5" dir="l" state="o"/>
    <connection from="O4a" to="aO3" fromLane="0" toLane="0" via=":a_6_0" tl="a" linkIndex="6" dir="r" state="o"/>
    <connection from="O4a" to="aO1" fromLane="1" toLane="1" via=":a_7_0" tl="a" linkIndex="7" dir="s" state="o"/>
    <connection from="O4a" to="aO2" fromLane="2" toLane="2" via=":a_8_0" tl="a" linkIndex="8" dir="l" state="o"/>

    <connection from=":a_0" to="aO2" fromLane="0" toLane="0" dir="s" state="M"/>
    <connection from=":a_1" to="aO4" fromLane="0" toLane="1" dir="s" state="M"/>
    <connection from=":a_2" to="aO3" fromLane="0" toLane="2" via=":a_12_0" dir="s" state="M"/>
    <connection from=":a_12" to="aO3" fromLane="0" toLane="2" dir="s" state="M"/>
    <connection from=":a_3" to="aO1" fromLane="0" toLane="0" dir="s" state="M"/>
    <connection from=":a_4" to="aO2" fromLane="0" toLane="1" dir="s" state="M"/>
    <connection from=":a_5" to="aO4" fromLane="0" toLane="2" via=":a_13_0" dir="s" state="M"/>
    <connection from=":a_13" to="aO4" fromLane="0" toLane="2" dir="s" state="M"/>
    <connection from=":a_6" to="aO3" fromLane="0" toLane="0" dir="s" state="M"/>
    <connection from=":a_7" to="aO1" fromLane="0" toLane="1" dir="s" state="M"/>
    <connection from=":a_8" to="aO2" fromLane="0" toLane="2" via=":a_14_0" dir="s" state="M"/>
    <connection from=":a_14" to="aO2" fromLane="0" toLane="2" dir="s" state="M"/>
    <connection from=":a_9" to="aO4" fromLane="0" toLane="0" dir="s" state="M"/>
    <connection from=":a_10" to="aO3" fromLane="0" toLane="1" dir="s" state="M"/>
    <connection from=":a_11" to="aO1" fromLane="0" toLane="2" via=":a_15_0" dir="s" state="M"/>
    <connection from=":a_15" to="aO1" fromLane="0" toLane="2" dir="s" state="M"/>

</net>
