<?xml version="1.0" encoding="UTF-8"?>

<!-- generated on 03/25/15 11:16:15 by SUMO netconvert Version 0.22.0
<?xml version="1.0" encoding="UTF-8"?>

<configuration xmlns:xsi="http://www.w3.org/2001/XMLSchema-instance" xsi:noNamespaceSchemaLocation="http://sumo.dlr.de/xsd/netconvertConfiguration.xsd">

    <input>
        <sumo-net-file value="inter_cra65.net.xml"/>
        <node-files value="nodos2.nod.xml"/>
    </input>

    <output>
        <output-file value="inter_nodos2.net.xml"/>
    </output>

    <processing>
        <no-turnarounds value="true"/>
        <offset.disable-normalization value="true"/>
    </processing>

</configuration>
-->

<net version="0.13" xmlns:xsi="http://www.w3.org/2001/XMLSchema-instance" xsi:noNamespaceSchemaLocation="http://sumo.dlr.de/xsd/net_file.xsd">

    <location netOffset="-435268.33,-690613.40" convBoundary="0.00,0.00,685.42,1405.39" origBoundary="-75.585171,6.247624,-75.578982,6.260340" projParameter="+proj=utm +zone=18 +ellps=WGS84 +datum=WGS84 +units=m +no_defs"/>

    <edge id=":-18_0" function="internal">
        <lane id=":-18_0_0" index="0" speed="27.78" length="5.11" shape="468.13,1006.46 467.41,1005.26 466.48,1004.60 465.34,1004.49 463.98,1004.92"/>
    </edge>
    <edge id=":-18_1" function="internal">
        <lane id=":-18_1_0" index="0" speed="27.78" length="10.60" shape="471.18,1005.19 469.55,1002.64 467.73,1001.37 465.81,1000.16 463.87,997.76"/>
    </edge>
    <edge id=":-18_2" function="internal">
        <lane id=":-18_2_0" index="0" speed="27.78" length="10.29" shape="472.61,1000.79 469.76,1001.58 467.58,1001.37 465.41,1001.15 462.56,1001.95"/>
    </edge>
    <edge id=":-18_3" function="internal">
        <lane id=":-18_3_0" index="0" speed="27.78" length="5.33" shape="471.19,997.81 469.88,998.20 468.70,998.05 467.65,997.36 466.74,996.13"/>
    </edge>
    <edge id=":-20_0" function="internal">
        <lane id=":-20_0_0" index="0" speed="27.78" length="8.19" shape="561.81,1211.60 562.51,1212.91 563.50,1213.70 564.77,1213.97 566.34,1213.73"/>
        <lane id=":-20_0_1" index="1" speed="27.78" length="8.19" shape="558.70,1212.70 560.04,1215.24 561.92,1216.79 564.33,1217.34 567.27,1216.89"/>
    </edge>
    <edge id=":-20_2" function="internal">
        <lane id=":-20_2_0" index="0" speed="27.78" length="13.67" shape="558.70,1212.70 560.51,1216.26 562.45,1218.33 564.39,1220.41 566.20,1223.97"/>
    </edge>
    <edge id=":-20_3" function="internal">
        <lane id=":-20_3_0" index="0" speed="27.78" length="9.98" shape="556.73,1216.62 559.58,1215.74 561.53,1215.15 563.48,1214.57 566.34,1213.73"/>
        <lane id=":-20_3_1" index="1" speed="27.78" length="9.98" shape="557.71,1219.77 567.27,1216.89"/>
        <lane id=":-20_3_2" index="2" speed="27.78" length="9.98" shape="558.68,1222.93 568.19,1220.06"/>
    </edge>
    <edge id=":-20_6" function="internal">
        <lane id=":-20_6_0" index="0" speed="27.78" length="5.54" shape="558.68,1222.93 560.19,1222.68 561.43,1222.96 562.39,1223.75 563.09,1225.07"/>
    </edge>
    <edge id=":-34_0" function="internal">
        <lane id=":-34_0_0" index="0" speed="27.78" length="8.12" shape="442.49,960.02 441.49,958.64 440.39,957.83 439.20,957.59 437.90,957.92"/>
        <lane id=":-34_0_1" index="1" speed="27.78" length="8.12" shape="445.36,958.40 443.54,955.94 441.46,954.54 439.12,954.20 436.53,954.91"/>
    </edge>
    <edge id=":-34_2" function="internal">
        <lane id=":-34_2_0" index="0" speed="27.78" length="9.72" shape="446.68,954.35 437.90,957.92"/>
        <lane id=":-34_2_1" index="1" speed="27.78" length="9.72" shape="445.54,951.26 436.53,954.91"/>
        <lane id=":-34_2_2" index="2" speed="27.78" length="9.72" shape="444.40,948.16 435.16,951.91"/>
    </edge>
    <edge id=":-8_0" function="internal">
        <lane id=":-8_0_0" index="0" allow="bicycle" speed="5.56" length="13.07" shape="552.56,1228.27 551.41,1225.02 550.38,1222.11 549.35,1219.20 548.20,1215.94"/>
    </edge>
    <edge id=":-8_1" function="internal">
        <lane id=":-8_1_0" index="0" speed="16.67" length="7.96" shape="552.56,1228.27 552.46,1226.79 553.28,1225.46 555.01,1224.28 557.64,1223.25"/>
    </edge>
    <edge id=":-8_2" function="internal">
        <lane id=":-8_2_0" index="0" allow="bicycle" speed="5.56" length="50.59" shape="552.56,1228.27 537.86,1223.00 531.57,1215.64 533.68,1206.19 544.19,1194.65"/>
    </edge>
    <edge id=":-8_3" function="internal">
        <lane id=":-8_3_0" index="0" speed="16.67" length="5.48" shape="551.32,1214.84 552.00,1216.14 552.96,1216.93 554.19,1217.19 555.69,1216.95"/>
    </edge>
    <edge id=":-8_4" function="internal">
        <lane id=":-8_4_0" index="0" allow="bicycle" speed="5.56" length="21.41" shape="551.32,1214.84 550.67,1213.01 547.75,1204.75 544.84,1196.48 544.19,1194.65"/>
    </edge>
    <edge id=":-8_5" function="internal">
        <lane id=":-8_5_0" index="0" allow="bicycle" speed="5.56" length="4.82" shape="551.32,1214.84 550.95,1216.29 550.31,1216.95 549.39,1216.84 548.20,1215.94"/>
    </edge>
    <edge id=":-8_6" function="internal">
        <lane id=":-8_6_0" index="0" allow="bicycle" speed="16.67" length="4.89" shape="546.42,1219.80 547.60,1219.24 548.29,1218.40 548.49,1217.31 548.20,1215.94"/>
    </edge>
    <edge id=":-8_7" function="internal">
        <lane id=":-8_7_0" index="0" speed="27.78" length="9.70" shape="546.42,1219.80 555.69,1216.95"/>
        <lane id=":-8_7_1" index="1" speed="27.78" length="9.70" shape="547.39,1222.96 556.66,1220.10"/>
        <lane id=":-8_7_2" index="2" speed="27.78" length="9.70" shape="548.36,1226.11 557.64,1223.25"/>
    </edge>
    <edge id=":-8_10" function="internal">
        <lane id=":-8_10_0" index="0" allow="bicycle" speed="16.67" length="31.74" shape="548.36,1226.11 544.19,1194.65"/>
    </edge>
    <edge id=":2469855625_0" function="internal">
        <lane id=":2469855625_0_0" index="0" allow="bicycle" speed="5.56" length="4.82" shape="170.00,2.28 170.54,0.89 171.25,0.31 172.15,0.53 173.22,1.56"/>
    </edge>
    <edge id=":2648933656_0" function="internal">
        <lane id=":2648933656_0_0" index="0" speed="13.89" length="4.82" shape="608.66,790.16 610.13,790.36 610.86,790.92 610.85,791.84 610.10,793.12"/>
    </edge>
    <edge id=":2664295618_0" function="internal">
        <lane id=":2664295618_0_0" index="0" allow="bicycle" speed="5.56" length="4.82" shape="587.09,1317.09 586.72,1318.53 586.07,1319.19 585.16,1319.07 583.97,1318.17"/>
    </edge>
    <edge id=":2679558273_0" function="internal">
        <lane id=":2679558273_0_0" index="0" speed="27.78" length="8.36" shape="555.26,1256.82 554.51,1255.46 553.48,1254.64 552.16,1254.34 550.56,1254.58"/>
        <lane id=":2679558273_0_1" index="1" speed="27.78" length="8.36" shape="558.35,1255.66 556.95,1253.10 555.03,1251.54 552.59,1250.98 549.64,1251.41"/>
    </edge>
    <edge id=":2679558273_2" function="internal">
        <lane id=":2679558273_2_0" index="0" speed="27.78" length="13.78" shape="558.35,1255.66 556.47,1252.10 554.50,1250.02 552.54,1247.93 550.72,1244.34"/>
    </edge>
    <edge id=":2679558273_3" function="internal">
        <lane id=":2679558273_3_0" index="0" speed="27.78" length="9.96" shape="560.12,1251.80 550.56,1254.58"/>
        <lane id=":2679558273_3_1" index="1" speed="27.78" length="9.96" shape="559.20,1248.63 549.64,1251.41"/>
        <lane id=":2679558273_3_2" index="2" speed="27.78" length="9.96" shape="558.27,1245.46 548.72,1248.25"/>
    </edge>
    <edge id=":2679558273_6" function="internal">
        <lane id=":2679558273_6_0" index="0" speed="27.78" length="5.59" shape="558.27,1245.46 556.75,1245.69 555.51,1245.39 554.53,1244.58 553.83,1243.24"/>
    </edge>
    <edge id=":360499935_0" function="internal">
        <lane id=":360499935_0_0" index="0" speed="27.78" length="6.11" shape="577.22,1245.38 575.89,1245.94 575.15,1246.94 574.98,1248.40 575.39,1250.31"/>
    </edge>
    <edge id=":360499935_1" function="internal">
        <lane id=":360499935_1_0" index="0" speed="27.78" length="10.21" shape="577.22,1245.38 574.39,1246.23 572.59,1247.22 570.81,1248.30 568.05,1249.41"/>
        <lane id=":360499935_1_1" index="1" speed="27.78" length="10.21" shape="576.55,1242.15 573.64,1243.02 571.78,1244.03 569.94,1245.12 567.09,1246.25"/>
    </edge>
    <edge id=":360499935_3" function="internal">
        <lane id=":360499935_3_0" index="0" speed="27.78" length="13.44" shape="571.21,1238.07 572.02,1241.90 571.79,1244.68 571.53,1247.48 572.25,1251.33"/>
    </edge>
    <edge id=":360499935_4" function="internal">
        <lane id=":360499935_4_0" index="0" speed="27.78" length="6.52" shape="568.10,1239.18 568.85,1241.91 568.93,1244.00 568.35,1245.44 567.09,1246.25"/>
        <lane id=":360499935_4_1" index="1" speed="27.78" length="6.52" shape="568.10,1239.18 568.38,1240.54 568.14,1241.65 567.39,1242.50 566.13,1243.09"/>
    </edge>
    <edge id=":361278650_0" function="internal">
        <lane id=":361278650_0_0" index="0" speed="27.78" length="13.70" shape="545.77,1230.37 544.93,1226.46 545.14,1223.62 545.35,1220.78 544.55,1216.86"/>
    </edge>
    <edge id=":361278650_1" function="internal">
        <lane id=":361278650_1_0" index="0" speed="27.78" length="4.87" shape="548.88,1229.27 547.96,1226.59 547.38,1224.65 547.13,1223.46 547.20,1223.02"/>
        <lane id=":361278650_1_1" index="1" speed="27.78" length="4.87" shape="548.88,1229.27 548.44,1227.95 548.17,1227.00 548.08,1226.40 548.17,1226.17"/>
    </edge>
    <edge id=":361278650_3" function="internal">
        <lane id=":361278650_3_0" index="0" speed="27.78" length="5.08" shape="539.38,1221.81 540.67,1221.25 541.44,1220.41 541.69,1219.31 541.43,1217.93"/>
    </edge>
    <edge id=":361278650_4" function="internal">
        <lane id=":361278650_4_0" index="0" speed="27.78" length="7.22" shape="539.38,1221.81 546.23,1219.86"/>
        <lane id=":361278650_4_1" index="1" speed="27.78" length="7.22" shape="540.25,1224.99 547.20,1223.02"/>
        <lane id=":361278650_4_2" index="2" speed="27.78" length="7.22" shape="541.13,1228.17 548.17,1226.17"/>
    </edge>
    <edge id=":cluster_-10_-12_360499933_0" function="internal">
        <lane id=":cluster_-10_-12_360499933_0_0" index="0" speed="16.67" length="76.11" shape="500.37,1071.38 489.76,1039.76 481.84,1017.34 476.63,1004.11 474.12,1000.07"/>
    </edge>
    <edge id=":cluster_-10_-12_360499933_1" function="internal">
        <lane id=":cluster_-10_-12_360499933_1_0" index="0" allow="bicycle" speed="5.56" length="13.13" shape="500.37,1071.38 501.41,1068.74 505.04,1067.23 508.55,1065.77 509.20,1063.29"/>
    </edge>
    <edge id=":cluster_-10_-12_360499933_2" function="internal">
        <lane id=":cluster_-10_-12_360499933_2_0" index="0" allow="bicycle" speed="5.56" length="181.98" shape="500.37,1071.38 554.89,1084.86 580.10,1108.90 576.00,1143.48 542.58,1188.62"/>
    </edge>
    <edge id=":cluster_-10_-12_360499933_3" function="internal">
        <lane id=":cluster_-10_-12_360499933_3_0" index="0" allow="bicycle" speed="5.56" length="0.79" shape="554.76,1234.31 554.96,1235.07"/>
    </edge>
    <edge id=":cluster_-10_-12_360499933_4" function="internal">
        <lane id=":cluster_-10_-12_360499933_4_0" index="0" speed="16.67" length="18.31" shape="554.76,1234.31 557.36,1241.89 559.16,1247.32 560.14,1250.60 560.32,1251.74"/>
    </edge>
    <edge id=":cluster_-10_-12_360499933_5" function="internal">
        <lane id=":cluster_-10_-12_360499933_5_0" index="0" allow="bicycle" speed="5.56" length="64.44" shape="554.76,1234.31 535.93,1227.91 527.76,1218.67 530.25,1206.59 543.40,1191.67"/>
    </edge>
    <edge id=":cluster_-10_-12_360499933_6" function="internal">
        <lane id=":cluster_-10_-12_360499933_6_0" index="0" speed="27.78" length="6.54" shape="566.59,1249.85 560.32,1251.74"/>
    </edge>
    <edge id=":cluster_-10_-12_360499933_7" function="internal">
        <lane id=":cluster_-10_-12_360499933_7_0" index="0" allow="bicycle" speed="16.67" length="62.79" shape="566.59,1249.85 564.15,1246.52 559.47,1235.71 552.55,1217.43 543.40,1191.67"/>
    </edge>
    <edge id=":cluster_-10_-12_360499933_8" function="internal">
        <lane id=":cluster_-10_-12_360499933_8_0" index="0" speed="27.78" length="6.54" shape="565.66,1246.69 559.39,1248.57"/>
    </edge>
    <edge id=":cluster_-10_-12_360499933_9" function="internal">
        <lane id=":cluster_-10_-12_360499933_9_0" index="0" allow="bicycle" speed="16.67" length="14.32" shape="564.72,1243.52 561.81,1243.69 559.22,1242.34 556.93,1239.47 554.96,1235.07"/>
    </edge>
    <edge id=":cluster_-10_-12_360499933_10" function="internal">
        <lane id=":cluster_-10_-12_360499933_10_0" index="0" speed="27.78" length="6.54" shape="564.72,1243.52 558.46,1245.41"/>
    </edge>
    <edge id=":cluster_-10_-12_360499933_11" function="internal">
        <lane id=":cluster_-10_-12_360499933_11_0" index="0" speed="27.78" length="70.82" shape="474.66,1000.89 481.93,1002.18 490.21,1012.22 499.51,1031.03 509.82,1058.60"/>
    </edge>
    <edge id=":cluster_-10_-12_360499933_12" function="internal">
        <lane id=":cluster_-10_-12_360499933_12_0" index="0" allow="bicycle" speed="16.67" length="199.64" shape="474.66,1000.89 542.58,1188.62"/>
    </edge>
    <edge id=":cluster_-10_-12_360499933_13" function="internal">
        <lane id=":cluster_-10_-12_360499933_13_0" index="0" speed="27.78" length="1.66" shape="474.66,1000.89 474.12,1000.07"/>
    </edge>
    <edge id=":cluster_-10_-12_360499933_14" function="internal">
        <lane id=":cluster_-10_-12_360499933_14_0" index="0" allow="bicycle" speed="16.67" length="74.68" shape="473.52,997.78 476.52,1001.52 483.47,1013.69 494.36,1034.28 509.20,1063.29"/>
    </edge>
    <edge id=":cluster_-10_-12_360499933_15" function="internal">
        <lane id=":cluster_-10_-12_360499933_15_0" index="0" speed="27.78" length="1.66" shape="472.39,994.67 473.07,996.91"/>
    </edge>
    <edge id=":cluster_-10_-12_360499933_16" function="internal">
        <lane id=":cluster_-10_-12_360499933_16_0" index="0" speed="16.67" length="52.82" shape="544.26,1194.84 551.71,1216.60 556.56,1232.28 558.81,1241.88 558.46,1245.41"/>
    </edge>
    <edge id=":cluster_-10_-12_360499933_17" function="internal">
        <lane id=":cluster_-10_-12_360499933_17_0" index="0" allow="bicycle" speed="5.56" length="3.28" shape="544.26,1194.84 543.40,1191.67"/>
    </edge>
    <edge id=":cluster_-10_-12_360499933_18" function="internal">
        <lane id=":cluster_-10_-12_360499933_18_0" index="0" allow="bicycle" speed="5.56" length="60.80" shape="544.26,1194.84 562.02,1200.88 569.72,1209.60 567.37,1221.00 554.96,1235.07"/>
    </edge>
    <edge id=":cluster_-10_-12_360499933_19" function="internal">
        <lane id=":cluster_-10_-12_360499933_19_0" index="0" speed="27.78" length="147.90" shape="492.92,1002.19 500.79,1026.86 514.38,1072.93 527.80,1119.07 535.16,1143.93"/>
    </edge>
    <edge id=":cluster_-10_-12_360499933_20" function="internal">
        <lane id=":cluster_-10_-12_360499933_20_0" index="0" allow="bicycle" speed="16.67" length="42.11" shape="498.36,1022.61 509.20,1063.29"/>
    </edge>
    <edge id=":cluster_-10_-12_360499933_21" function="internal">
        <lane id=":cluster_-10_-12_360499933_21_0" index="0" allow="bicycle" speed="16.67" length="171.81" shape="498.36,1022.61 506.76,1051.74 521.40,1107.26 535.58,1161.96 542.58,1188.62"/>
    </edge>
    <edge id=":cluster_-10_-12_360499933_22" function="internal">
        <lane id=":cluster_-10_-12_360499933_22_0" index="0" speed="27.78" length="37.69" shape="498.36,1022.61 492.16,1010.64 486.06,1002.89 480.04,999.36 474.12,1000.07"/>
        <lane id=":cluster_-10_-12_360499933_22_1" index="1" speed="27.78" length="37.69" shape="498.36,1022.61 491.59,1009.31 485.12,1000.59 478.95,996.46 473.07,996.91"/>
    </edge>
    <edge id=":cluster_-10_-12_360499933_24" function="internal">
        <lane id=":cluster_-10_-12_360499933_24_0" index="0" allow="bicycle" speed="5.56" length="23.34" shape="505.08,1047.85 511.90,1050.17 514.86,1053.51 513.96,1057.89 509.20,1063.29"/>
    </edge>
    <edge id=":cluster_-10_-12_360499933_25" function="internal">
        <lane id=":cluster_-10_-12_360499933_25_0" index="0" allow="bicycle" speed="5.56" length="145.68" shape="505.08,1047.85 511.67,1071.06 524.09,1118.13 536.38,1165.25 542.58,1188.62"/>
    </edge>
    <edge id=":cluster_-10_-12_360499933_26" function="internal">
        <lane id=":cluster_-10_-12_360499933_26_0" index="0" speed="16.67" length="60.79" shape="505.08,1047.85 492.96,1024.66 483.58,1008.44 476.95,999.19 473.07,996.91"/>
    </edge>
    <edge id=":cluster_-22_2641476040_338509113_360500037_0" function="internal">
        <lane id=":cluster_-22_2641476040_338509113_360500037_0_0" index="0" speed="16.67" length="10.46" shape="454.30,954.79 453.32,953.73 451.75,953.30 449.60,953.48 446.87,954.28"/>
        <lane id=":cluster_-22_2641476040_338509113_360500037_0_1" index="1" speed="16.67" length="10.46" shape="454.30,954.79 452.69,952.43 450.72,951.04 448.40,950.63 445.73,951.19"/>
        <lane id=":cluster_-22_2641476040_338509113_360500037_0_2" index="2" speed="16.67" length="10.46" shape="454.30,954.79 452.05,951.12 449.68,948.78 447.19,947.77 444.59,948.09"/>
    </edge>
    <edge id=":cluster_-22_2641476040_338509113_360500037_3" function="internal">
        <lane id=":cluster_-22_2641476040_338509113_360500037_3_0" index="0" allow="bicycle" speed="5.56" length="29.69" shape="454.30,954.79 451.32,949.53 446.79,941.99 442.27,934.43 439.30,929.17"/>
    </edge>
    <edge id=":cluster_-22_2641476040_338509113_360500037_4" function="internal">
        <lane id=":cluster_-22_2641476040_338509113_360500037_4_0" index="0" speed="16.67" length="32.31" shape="454.30,954.79 450.95,945.49 451.03,937.62 454.53,931.16 461.45,926.12"/>
        <lane id=":cluster_-22_2641476040_338509113_360500037_4_1" index="1" speed="16.67" length="32.31" shape="454.30,954.79 451.60,946.78 452.14,939.83 455.92,933.92 462.93,929.07"/>
    </edge>
    <edge id=":cluster_-22_2641476040_338509113_360500037_6" function="internal">
        <lane id=":cluster_-22_2641476040_338509113_360500037_6_0" index="0" speed="16.67" length="14.44" shape="454.30,954.79 469.02,948.27"/>
        <lane id=":cluster_-22_2641476040_338509113_360500037_6_1" index="1" speed="16.67" length="14.44" shape="454.30,954.79 466.00,949.61"/>
    </edge>
    <edge id=":cluster_-22_2641476040_338509113_360500037_8" function="internal">
        <lane id=":cluster_-22_2641476040_338509113_360500037_8_0" index="0" allow="bicycle" speed="5.56" length="4.83" shape="454.30,954.79 454.56,953.32 455.14,952.61 456.07,952.65 457.32,953.45"/>
    </edge>
    <edge id=":cluster_-22_2641476040_338509113_360500037_9" function="internal">
        <lane id=":cluster_-22_2641476040_338509113_360500037_9_0" index="0" speed="27.78" length="8.86" shape="470.50,944.17 469.39,944.92 468.77,945.85 468.65,946.97 469.02,948.27"/>
    </edge>
    <edge id=":cluster_-22_2641476040_338509113_360500037_10" function="internal">
        <lane id=":cluster_-22_2641476040_338509113_360500037_10_0" index="0" allow="bicycle" speed="16.67" length="16.57" shape="470.50,944.17 464.30,947.36 460.03,949.97 457.71,952.00 457.32,953.45"/>
    </edge>
    <edge id=":cluster_-22_2641476040_338509113_360500037_11" function="internal">
        <lane id=":cluster_-22_2641476040_338509113_360500037_11_0" index="0" speed="27.78" length="25.36" shape="470.50,944.17 463.63,947.49 458.87,949.67 454.02,951.62 446.87,954.28"/>
        <lane id=":cluster_-22_2641476040_338509113_360500037_11_1" index="1" speed="27.78" length="25.36" shape="469.02,941.22 462.25,944.49 457.56,946.64 452.78,948.56 445.73,951.19"/>
    </edge>
    <edge id=":cluster_-22_2641476040_338509113_360500037_13" function="internal">
        <lane id=":cluster_-22_2641476040_338509113_360500037_13_0" index="0" speed="27.78" length="8.86" shape="467.54,938.27 465.42,939.96 464.45,942.42 464.65,945.63 466.00,949.61"/>
    </edge>
    <edge id=":cluster_-22_2641476040_338509113_360500037_14" function="internal">
        <lane id=":cluster_-22_2641476040_338509113_360500037_14_0" index="0" speed="27.78" length="25.36" shape="467.54,938.27 460.87,941.50 456.25,943.61 451.54,945.50 444.59,948.09"/>
    </edge>
    <edge id=":cluster_-22_2641476040_338509113_360500037_15" function="internal">
        <lane id=":cluster_-22_2641476040_338509113_360500037_15_0" index="0" allow="bicycle" speed="16.67" length="26.85" shape="467.54,938.27 458.61,941.18 450.92,940.63 444.49,936.63 443.25,934.85"/>
    </edge>
    <edge id=":cluster_-22_2641476040_338509113_360500037_16" function="internal">
        <lane id=":cluster_-22_2641476040_338509113_360500037_16_0" index="0" speed="27.78" length="11.03" shape="467.54,938.27 461.46,937.52 458.42,935.24 458.41,931.44 458.82,930.74"/>
        <lane id=":cluster_-22_2641476040_338509113_360500037_16_1" index="1" speed="27.78" length="11.03" shape="467.54,938.27 462.94,937.70 460.63,935.98"/>
    </edge>
    <edge id=":cluster_-22_2641476040_338509113_360500037_43" function="internal">
        <lane id=":cluster_-22_2641476040_338509113_360500037_43_0" index="0" speed="16.67" length="6.92" shape="443.25,934.85 439.30,929.17"/>
    </edge>
    <edge id=":cluster_-22_2641476040_338509113_360500037_44" function="internal">
        <lane id=":cluster_-22_2641476040_338509113_360500037_44_0" index="0" speed="27.78" length="5.31" shape="458.82,930.74 461.45,926.12"/>
    </edge>
    <edge id=":cluster_-22_2641476040_338509113_360500037_45" function="internal">
        <lane id=":cluster_-22_2641476040_338509113_360500037_45_0" index="0" speed="27.78" length="7.52" shape="460.63,935.98 460.63,933.10 462.93,929.07"/>
    </edge>
    <edge id=":cluster_-22_2641476040_338509113_360500037_18" function="internal">
        <lane id=":cluster_-22_2641476040_338509113_360500037_18_0" index="0" speed="27.78" length="12.78" shape="454.56,921.60 455.49,923.01 456.71,923.74 458.20,923.79 459.97,923.17"/>
    </edge>
    <edge id=":cluster_-22_2641476040_338509113_360500037_19" function="internal">
        <lane id=":cluster_-22_2641476040_338509113_360500037_19_0" index="0" speed="27.78" length="30.21" shape="451.60,923.07 455.91,931.69 459.62,938.03 462.92,943.52 466.00,949.61"/>
    </edge>
    <edge id=":cluster_-22_2641476040_338509113_360500037_20" function="internal">
        <lane id=":cluster_-22_2641476040_338509113_360500037_20_0" index="0" speed="27.78" length="12.78" shape="448.64,924.54 450.56,927.08 453.33,928.19 456.96,927.87 461.45,926.12"/>
        <lane id=":cluster_-22_2641476040_338509113_360500037_20_1" index="1" speed="27.78" length="12.78" shape="448.64,924.54 451.17,928.39 454.39,930.43 458.31,930.65 462.93,929.07"/>
    </edge>
    <edge id=":cluster_-22_2641476040_338509113_360500037_22" function="internal">
        <lane id=":cluster_-22_2641476040_338509113_360500037_22_0" index="0" allow="bicycle" speed="16.67" length="30.24" shape="448.64,924.54 452.31,934.18 454.47,942.44 455.89,948.97 457.32,953.45"/>
    </edge>
    <edge id=":cluster_-22_2641476040_338509113_360500037_23" function="internal">
        <lane id=":cluster_-22_2641476040_338509113_360500037_23_0" index="0" speed="27.78" length="30.37" shape="448.64,924.54 452.80,935.74 453.89,944.43 451.91,950.61 446.87,954.28"/>
        <lane id=":cluster_-22_2641476040_338509113_360500037_23_1" index="1" speed="27.78" length="30.37" shape="448.64,924.54 452.21,934.41 452.92,942.15 450.75,947.74 445.73,951.19"/>
        <lane id=":cluster_-22_2641476040_338509113_360500037_23_2" index="2" speed="27.78" length="30.37" shape="448.64,924.54 451.62,933.09 451.94,939.87 449.60,944.87 444.59,948.09"/>
    </edge>
    <edge id=":cluster_-22_2641476040_338509113_360500037_26" function="internal">
        <lane id=":cluster_-22_2641476040_338509113_360500037_26_0" index="0" allow="bicycle" speed="16.67" length="10.43" shape="448.64,924.54 439.30,929.17"/>
    </edge>
    <edge id=":cluster_-22_2641476040_338509113_360500037_27" function="internal">
        <lane id=":cluster_-22_2641476040_338509113_360500037_27_0" index="0" speed="16.67" length="22.07" shape="442.26,927.70 444.66,930.02 448.65,930.53 454.25,929.23 461.45,926.12"/>
        <lane id=":cluster_-22_2641476040_338509113_360500037_27_1" index="1" speed="16.67" length="22.07" shape="442.26,927.70 445.30,931.31 449.76,932.74 455.63,932.00 462.93,929.07"/>
    </edge>
    <edge id=":cluster_-22_2641476040_338509113_360500037_29" function="internal">
        <lane id=":cluster_-22_2641476040_338509113_360500037_29_0" index="0" speed="16.67" length="32.51" shape="442.26,927.70 446.34,931.73 453.44,936.91 460.89,942.96 466.00,949.61"/>
    </edge>
    <edge id=":cluster_-22_2641476040_338509113_360500037_30" function="internal">
        <lane id=":cluster_-22_2641476040_338509113_360500037_30_0" index="0" allow="bicycle" speed="5.56" length="29.83" shape="442.26,927.70 445.23,932.99 449.78,940.58 454.33,948.17 457.32,953.45"/>
    </edge>
    <edge id=":cluster_-22_2641476040_338509113_360500037_31" function="internal">
        <lane id=":cluster_-22_2641476040_338509113_360500037_31_0" index="0" speed="16.67" length="25.60" shape="442.26,927.70 447.00,938.33 449.34,946.30 449.30,951.62 446.87,954.28"/>
        <lane id=":cluster_-22_2641476040_338509113_360500037_31_1" index="1" speed="16.67" length="25.60" shape="442.26,927.70 446.37,937.02 448.32,944.04 448.11,948.76 445.73,951.19"/>
        <lane id=":cluster_-22_2641476040_338509113_360500037_31_2" index="2" speed="16.67" length="25.60" shape="442.26,927.70 445.75,935.71 447.30,941.78 446.91,945.91 444.59,948.09"/>
    </edge>
    <edge id=":cluster_-22_2641476040_338509113_360500037_34" function="internal">
        <lane id=":cluster_-22_2641476040_338509113_360500037_34_0" index="0" allow="bicycle" speed="5.56" length="4.82" shape="442.26,927.70 442.07,929.18 441.51,929.91 440.59,929.91 439.30,929.17"/>
    </edge>
    <edge id=":cluster_-22_2641476040_338509113_360500037_35" function="internal">
        <lane id=":cluster_-22_2641476040_338509113_360500037_35_0" index="0" allow="bicycle" speed="16.67" length="5.14" shape="437.72,933.36 438.94,932.58 439.61,931.63 439.73,930.49 439.30,929.17"/>
    </edge>
    <edge id=":cluster_-22_2641476040_338509113_360500037_36" function="internal">
        <lane id=":cluster_-22_2641476040_338509113_360500037_36_0" index="0" speed="27.78" length="25.08" shape="437.72,933.36 444.63,930.83 449.66,929.88 454.65,928.87 461.45,926.12"/>
        <lane id=":cluster_-22_2641476040_338509113_360500037_36_1" index="1" speed="27.78" length="25.08" shape="438.86,936.46 445.87,933.89 450.97,932.92 456.03,931.87 462.93,929.07"/>
    </edge>
    <edge id=":cluster_-22_2641476040_338509113_360500037_38" function="internal">
        <lane id=":cluster_-22_2641476040_338509113_360500037_38_0" index="0" speed="27.78" length="22.16" shape="440.00,939.57 448.34,937.12 455.46,937.97 460.60,941.62"/>
    </edge>
    <edge id=":cluster_-22_2641476040_338509113_360500037_39" function="internal">
        <lane id=":cluster_-22_2641476040_338509113_360500037_39_0" index="0" allow="bicycle" speed="16.67" length="14.58" shape="440.00,939.57 444.22,939.00 448.51,941.12 452.23,945.22"/>
    </edge>
    <edge id=":cluster_-22_2641476040_338509113_360500037_40" function="internal">
        <lane id=":cluster_-22_2641476040_338509113_360500037_40_0" index="0" speed="27.78" length="11.65" shape="440.00,939.57 447.23,940.68 450.79,943.50 450.73,945.81"/>
        <lane id=":cluster_-22_2641476040_338509113_360500037_40_1" index="1" speed="27.78" length="11.65" shape="440.00,939.57 445.79,940.33 448.67,942.52 448.65,946.14 448.33,946.70"/>
        <lane id=":cluster_-22_2641476040_338509113_360500037_40_2" index="2" speed="27.78" length="11.65" shape="440.00,939.57 444.34,939.98 446.55,941.54"/>
    </edge>
    <edge id=":cluster_-22_2641476040_338509113_360500037_46" function="internal">
        <lane id=":cluster_-22_2641476040_338509113_360500037_46_0" index="0" speed="27.78" length="9.71" shape="460.60,941.62 461.34,942.14 466.00,949.61"/>
    </edge>
    <edge id=":cluster_-22_2641476040_338509113_360500037_47" function="internal">
        <lane id=":cluster_-22_2641476040_338509113_360500037_47_0" index="0" speed="16.67" length="9.69" shape="452.23,945.22 452.88,945.94 457.32,953.45"/>
    </edge>
    <edge id=":cluster_-22_2641476040_338509113_360500037_48" function="internal">
        <lane id=":cluster_-22_2641476040_338509113_360500037_48_0" index="0" speed="27.78" length="9.54" shape="450.73,945.81 450.67,948.03 446.87,954.28"/>
    </edge>
    <edge id=":cluster_-22_2641476040_338509113_360500037_49" function="internal">
        <lane id=":cluster_-22_2641476040_338509113_360500037_49_0" index="0" speed="27.78" length="5.19" shape="448.33,946.70 445.73,951.19"/>
    </edge>
    <edge id=":cluster_-22_2641476040_338509113_360500037_50" function="internal">
        <lane id=":cluster_-22_2641476040_338509113_360500037_50_0" index="0" speed="27.78" length="7.06" shape="446.55,941.54 446.64,944.24 444.59,948.09"/>
    </edge>
    <edge id=":cluster_-24_2641476049_0" function="internal">
        <lane id=":cluster_-24_2641476049_0_0" index="0" allow="bicycle" speed="5.56" length="12.82" shape="419.80,888.81 418.34,885.73 417.05,883.01 415.77,880.30 414.31,877.22"/>
    </edge>
    <edge id=":cluster_-24_2641476049_1" function="internal">