<?xml version="1.0" encoding="UTF-8"?>

<!-- generated on 03/25/15 11:11:11 by SUMO netconvert Version 0.22.0
<?xml version="1.0" encoding="UTF-8"?>

<configuration xmlns:xsi="http://www.w3.org/2001/XMLSchema-instance" xsi:noNamespaceSchemaLocation="http://sumo.dlr.de/xsd/netconvertConfiguration.xsd">

    <input>
        <osm-files value="C:/Users/Ana Maria/Desktop/final/inter_cra65.osm"/>
    </input>

    <output>
        <output-file value="C:/Users/Ana Maria/Desktop/final/inter_cra65.net.xml"/>
    </output>

    <projection>
        <proj.utm value="true"/>
    </projection>

    <tls_building>
        <tls.join value="true"/>
    </tls_building>

    <processing>
        <ignore-errors value="true"/>
    </processing>

</configuration>
-->

<net version="0.13" xmlns:xsi="http://www.w3.org/2001/XMLSchema-instance" xsi:noNamespaceSchemaLocation="http://sumo.dlr.de/xsd/net_file.xsd">

    <location netOffset="-435268.33,-690613.40" convBoundary="0.00,0.00,685.42,1405.39" origBoundary="-75.585171,6.247624,-75.578982,6.260340" projParameter="+proj=utm +zone=18 +ellps=WGS84 +datum=WGS84 +units=m +no_defs"/>

    <edge id=":-10_0" function="internal">
        <lane id=":-10_0_0" index="0" speed="16.67" length="3.44" shape="561.87,1254.73 561.37,1253.37 560.94,1252.42 560.59,1251.88 560.32,1251.74"/>
    </edge>
    <edge id=":-10_1" function="internal">
        <lane id=":-10_1_0" index="0" allow="bicycle" speed="5.56" length="13.11" shape="561.87,1254.73 560.74,1251.47 559.71,1248.54 558.68,1245.62 557.53,1242.36"/>
    </edge>
    <edge id=":-10_2" function="internal">
        <lane id=":-10_2_0" index="0" allow="bicycle" speed="5.56" length="4.82" shape="561.87,1254.73 562.25,1253.29 562.89,1252.63 563.80,1252.75 564.99,1253.65"/>
    </edge>
    <edge id=":-10_3" function="internal">
        <lane id=":-10_3_0" index="0" allow="bicycle" speed="16.67" length="5.05" shape="566.97,1249.74 565.72,1250.33 564.97,1251.18 564.72,1252.28 564.99,1253.65"/>
    </edge>
    <edge id=":-10_4" function="internal">
        <lane id=":-10_4_0" index="0" speed="27.78" length="6.91" shape="566.97,1249.74 560.32,1251.74"/>
        <lane id=":-10_4_1" index="1" speed="27.78" length="6.91" shape="566.01,1246.58 559.40,1248.57"/>
        <lane id=":-10_4_2" index="2" speed="27.78" length="6.91" shape="565.05,1243.42 558.47,1245.41"/>
    </edge>
    <edge id=":-10_7" function="internal">
        <lane id=":-10_7_0" index="0" allow="bicycle" speed="16.67" length="8.31" shape="565.05,1243.42 562.16,1244.10 559.95,1244.14 558.40,1243.56 557.53,1242.36"/>
    </edge>
    <edge id=":-10_8" function="internal">
        <lane id=":-10_8_0" index="0" allow="bicycle" speed="5.56" length="13.13" shape="560.65,1241.26 561.80,1244.52 562.83,1247.45 563.85,1250.38 564.99,1253.65"/>
    </edge>
    <edge id=":-10_9" function="internal">
        <lane id=":-10_9_0" index="0" speed="16.67" length="5.41" shape="560.65,1241.26 560.93,1242.71 560.66,1243.89 559.85,1244.79 558.47,1245.41"/>
    </edge>
    <edge id=":-10_10" function="internal">
        <lane id=":-10_10_0" index="0" allow="bicycle" speed="5.56" length="4.82" shape="560.65,1241.26 560.28,1242.70 559.64,1243.37 558.72,1243.25 557.53,1242.36"/>
    </edge>
    <edge id=":-12_0" function="internal">
        <lane id=":-12_0_0" index="0" speed="16.67" length="5.15" shape="477.43,1002.12 476.79,1000.83 475.90,1000.12 474.77,999.98 473.40,1000.41"/>
    </edge>
    <edge id=":-12_1" function="internal">
        <lane id=":-12_1_0" index="0" allow="bicycle" speed="5.56" length="9.73" shape="477.43,1002.12 473.70,993.13"/>
    </edge>
    <edge id=":-12_2" function="internal">
        <lane id=":-12_2_0" index="0" allow="bicycle" speed="5.56" length="4.82" shape="477.43,1002.12 477.82,1000.68 478.47,1000.03 479.38,1000.15 480.56,1001.06"/>
    </edge>
    <edge id=":-12_3" function="internal">
        <lane id=":-12_3_0" index="0" allow="bicycle" speed="16.67" length="6.04" shape="482.37,995.90 481.13,996.82 480.41,997.99 480.22,999.40 480.56,1001.06"/>
    </edge>
    <edge id=":-12_4" function="internal">
        <lane id=":-12_4_0" index="0" speed="27.78" length="9.98" shape="482.37,995.90 479.73,997.29 477.92,998.22 476.08,999.12 473.40,1000.41"/>
        <lane id=":-12_4_1" index="1" speed="27.78" length="9.98" shape="480.83,992.98 471.97,997.43"/>
    </edge>
    <edge id=":-12_6" function="internal">
        <lane id=":-12_6_0" index="0" allow="bicycle" speed="16.67" length="7.91" shape="480.83,992.98 478.25,994.12 476.20,994.52 474.68,994.19 473.70,993.13"/>
    </edge>
    <edge id=":-12_7" function="internal">
        <lane id=":-12_7_0" index="0" allow="bicycle" speed="5.56" length="10.22" shape="476.64,991.64 477.98,994.33 478.85,996.25 479.59,998.22 480.56,1001.06"/>
    </edge>
    <edge id=":-12_8" function="internal">
        <lane id=":-12_8_0" index="0" speed="16.67" length="8.22" shape="476.64,991.64 476.89,993.08 476.20,994.52 474.56,995.97 471.97,997.43"/>
    </edge>
    <edge id=":-12_9" function="internal">
        <lane id=":-12_9_0" index="0" allow="bicycle" speed="5.56" length="4.82" shape="476.64,991.64 476.46,993.12 475.91,993.86 474.99,993.86 473.70,993.13"/>
    </edge>
    <edge id=":-18_0" function="internal">
        <lane id=":-18_0_0" index="0" speed="27.78" length="5.11" shape="468.14,1006.46 467.42,1005.26 466.49,1004.60 465.34,1004.49 463.99,1004.92"/>
    </edge>
    <edge id=":-18_1" function="internal">
        <lane id=":-18_1_0" index="0" speed="27.78" length="10.60" shape="471.18,1005.19 469.55,1002.63 467.74,1001.37 465.82,1000.16 463.87,997.76"/>
    </edge>
    <edge id=":-18_2" function="internal">
        <lane id=":-18_2_0" index="0" speed="27.78" length="10.29" shape="472.61,1000.79 469.76,1001.58 467.58,1001.36 465.41,1001.15 462.56,1001.94"/>
    </edge>
    <edge id=":-18_3" function="internal">
        <lane id=":-18_3_0" index="0" speed="27.78" length="5.33" shape="471.19,997.81 469.88,998.20 468.70,998.05 467.66,997.36 466.74,996.13"/>
    </edge>
    <edge id=":-20_0" function="internal">
        <lane id=":-20_0_0" index="0" speed="27.78" length="8.19" shape="561.80,1211.60 562.50,1212.90 563.49,1213.69 564.77,1213.97 566.34,1213.72"/>
        <lane id=":-20_0_1" index="1" speed="27.78" length="8.19" shape="558.69,1212.70 560.04,1215.24 561.92,1216.78 564.32,1217.33 567.26,1216.89"/>
    </edge>
    <edge id=":-20_2" function="internal">
        <lane id=":-20_2_0" index="0" speed="27.78" length="13.66" shape="558.69,1212.70 560.50,1216.25 562.45,1218.33 564.39,1220.41 566.20,1223.96"/>
    </edge>
    <edge id=":-20_3" function="internal">
        <lane id=":-20_3_0" index="0" speed="27.78" length="9.98" shape="556.73,1216.62 559.58,1215.74 561.52,1215.14 563.48,1214.56 566.34,1213.72"/>
        <lane id=":-20_3_1" index="1" speed="27.78" length="9.98" shape="557.71,1219.77 567.26,1216.89"/>
        <lane id=":-20_3_2" index="2" speed="27.78" length="9.98" shape="558.69,1222.93 568.19,1220.06"/>
    </edge>
    <edge id=":-20_6" function="internal">
        <lane id=":-20_6_0" index="0" speed="27.78" length="5.53" shape="558.69,1222.93 560.19,1222.68 561.43,1222.95 562.39,1223.75 563.09,1225.07"/>
    </edge>
    <edge id=":-22_0" function="internal">
        <lane id=":-22_0_0" index="0" allow="bicycle" speed="5.56" length="13.72" shape="446.14,941.06 444.23,938.06 442.53,935.22 440.93,932.33 439.30,929.17"/>
    </edge>
    <edge id=":-22_1" function="internal">
        <lane id=":-22_1_0" index="0" speed="16.67" length="8.11" shape="446.14,941.06 445.56,939.44 445.99,937.92 447.44,936.50 449.90,935.18"/>
    </edge>
    <edge id=":-22_2" function="internal">
        <lane id=":-22_2_0" index="0" allow="bicycle" speed="5.56" length="4.82" shape="446.14,941.06 446.15,939.57 446.62,938.77 447.54,938.67 448.90,939.25"/>
    </edge>
    <edge id=":-22_3" function="internal">
        <lane id=":-22_3_0" index="0" speed="16.67" length="5.88" shape="442.26,927.70 443.12,928.90 444.25,929.53 445.64,929.60 447.29,929.11"/>
    </edge>
    <edge id=":-22_4" function="internal">
        <lane id=":-22_4_0" index="0" allow="bicycle" speed="5.56" length="13.33" shape="442.26,927.70 443.85,930.81 445.39,933.59 447.02,936.31 448.90,939.25"/>
    </edge>
    <edge id=":-22_5" function="internal">
        <lane id=":-22_5_0" index="0" allow="bicycle" speed="5.56" length="4.82" shape="442.26,927.70 442.07,929.18 441.52,929.91 440.59,929.91 439.30,929.17"/>
    </edge>
    <edge id=":-22_6" function="internal">
        <lane id=":-22_6_0" index="0" allow="bicycle" speed="16.67" length="5.04" shape="437.84,933.31 439.01,932.55 439.64,931.62 439.74,930.49 439.30,929.17"/>
    </edge>
    <edge id=":-22_7" function="internal">
        <lane id=":-22_7_0" index="0" speed="27.78" length="10.26" shape="437.84,933.31 440.63,932.03 442.55,931.17 444.47,930.33 447.29,929.11"/>
        <lane id=":-22_7_1" index="1" speed="27.78" length="10.26" shape="439.22,936.31 441.99,935.04 443.89,934.18 445.80,933.35 448.59,932.15"/>
        <lane id=":-22_7_2" index="2" speed="27.78" length="10.26" shape="440.59,939.30 443.34,938.05 445.23,937.20 447.12,936.37 449.90,935.18"/>
    </edge>
    <edge id=":-22_10" function="internal">
        <lane id=":-22_10_0" index="0" allow="bicycle" speed="16.67" length="8.98" shape="440.59,939.30 443.52,938.20 445.88,937.82 447.68,938.17 448.90,939.25"/>
    </edge>
    <edge id=":-24_0" function="internal">
        <lane id=":-24_0_0" index="0" allow="bicycle" speed="5.56" length="12.82" shape="419.79,888.79 418.33,885.71 417.04,883.00 415.76,880.29 414.30,877.20"/>
    </edge>
    <edge id=":-24_1" function="internal">
        <lane id=":-24_1_0" index="0" speed="16.67" length="7.91" shape="419.79,888.79 419.55,887.36 420.22,885.96 421.80,884.59 424.28,883.25"/>
    </edge>
    <edge id=":-24_2" function="internal">
        <lane id=":-24_2_0" index="0" allow="bicycle" speed="5.56" length="4.82" shape="419.79,888.79 420.00,887.32 420.57,886.59 421.49,886.61 422.77,887.38"/>
    </edge>
    <edge id=":-24_3" function="internal">
        <lane id=":-24_3_0" index="0" speed="16.67" length="5.13" shape="417.29,875.79 418.05,876.92 419.01,877.54 420.19,877.64 421.57,877.23"/>
    </edge>
    <edge id=":-24_4" function="internal">
        <lane id=":-24_4_0" index="0" allow="bicycle" speed="5.56" length="12.82" shape="417.29,875.79 418.74,878.87 420.03,881.59 421.31,884.30 422.77,887.38"/>
    </edge>
    <edge id=":-24_5" function="internal">
        <lane id=":-24_5_0" index="0" allow="bicycle" speed="5.56" length="4.82" shape="417.29,875.79 417.07,877.26 416.50,877.99 415.58,877.97 414.30,877.20"/>
    </edge>
    <edge id=":-24_6" function="internal">
        <lane id=":-24_6_0" index="0" allow="bicycle" speed="16.67" length="5.17" shape="412.68,881.46 413.88,880.64 414.56,879.66 414.70,878.51 414.30,877.20"/>
    </edge>
    <edge id=":-24_7" function="internal">
        <lane id=":-24_7_0" index="0" speed="27.78" length="9.70" shape="412.68,881.46 421.57,877.23"/>
        <lane id=":-24_7_1" index="1" speed="27.78" length="9.70" shape="414.16,884.41 422.92,880.24"/>
        <lane id=":-24_7_2" index="2" speed="27.78" length="9.70" shape="415.64,887.36 424.28,883.25"/>
    </edge>
    <edge id=":-24_10" function="internal">
        <lane id=":-24_10_0" index="0" allow="bicycle" speed="16.67" length="7.91" shape="415.64,887.36 418.24,886.28 420.30,885.92 421.81,886.29 422.77,887.38"/>
    </edge>
    <edge id=":-26_0" function="internal">
        <lane id=":-26_0_0" index="0" speed="16.67" length="6.66" shape="307.29,627.68 306.38,626.18 305.17,625.25 303.66,624.87 301.85,625.05"/>
    </edge>
    <edge id=":-26_1" function="internal">
        <lane id=":-26_1_0" index="0" allow="bicycle" speed="5.56" length="10.65" shape="307.29,627.68 306.08,624.86 305.19,622.79 304.28,620.73 303.03,617.92"/>
    </edge>
    <edge id=":-26_2" function="internal">
        <lane id=":-26_2_0" index="0" allow="bicycle" speed="5.56" length="4.82" shape="307.29,627.68 307.56,626.22 308.16,625.51 309.08,625.57 310.33,626.38"/>
    </edge>
    <edge id=":-26_3" function="internal">
        <lane id=":-26_3_0" index="0" allow="bicycle" speed="16.67" length="5.03" shape="312.05,622.49 310.80,623.04 310.10,623.87 309.94,624.99 310.33,626.38"/>
    </edge>
    <edge id=":-26_4" function="internal">
        <lane id=":-26_4_0" index="0" speed="27.78" length="10.47" shape="312.05,622.49 309.03,623.30 306.96,623.83 304.89,624.34 301.85,625.05"/>
        <lane id=":-26_4_1" index="1" speed="27.78" length="10.47" shape="311.20,619.30 308.21,620.10 306.16,620.63 304.10,621.13 301.09,621.84"/>
    </edge>
    <edge id=":-26_6" function="internal">
        <lane id=":-26_6_0" index="0" allow="bicycle" speed="16.67" length="8.95" shape="311.20,619.30 308.16,619.89 305.78,619.86 304.08,619.20 303.03,617.92"/>
    </edge>
    <edge id=":-26_7" function="internal">
        <lane id=":-26_7_0" index="0" allow="bicycle" speed="5.56" length="10.69" shape="306.05,616.58 307.30,619.39 308.21,621.47 309.11,623.55 310.33,626.38"/>
    </edge>
    <edge id=":-26_8" function="internal">
        <lane id=":-26_8_0" index="0" speed="16.67" length="8.41" shape="306.05,616.58 306.36,618.30 305.63,619.75 303.88,620.93 301.09,621.84"/>
    </edge>
    <edge id=":-26_9" function="internal">
        <lane id=":-26_9_0" index="0" allow="bicycle" speed="5.56" length="4.82" shape="306.05,616.58 305.80,618.05 305.21,618.76 304.29,618.72 303.03,617.92"/>
    </edge>
    <edge id=":-28_0" function="internal">
        <lane id=":-28_0_0" index="0" speed="27.78" length="8.39" shape="321.99,620.05 320.60,620.60 319.82,621.44 319.66,622.57 320.11,624.00"/>
        <lane id=":-28_0_1" index="1" speed="27.78" length="8.39" shape="321.23,616.84 318.20,618.03 316.51,619.86 316.16,622.33 317.14,625.44"/>
    </edge>
    <edge id=":-28_2" function="internal">
        <lane id=":-28_2_0" index="0" speed="27.78" length="10.75" shape="321.23,616.84 318.37,618.04 316.72,619.58 315.08,621.16 312.24,622.44"/>
    </edge>
    <edge id=":-28_3" function="internal">
        <lane id=":-28_3_0" index="0" speed="27.78" length="11.35" shape="315.51,613.82 316.80,616.88 317.71,618.96 318.67,621.01 320.11,624.00"/>
        <lane id=":-28_3_1" index="1" speed="27.78" length="11.35" shape="312.47,615.09 313.78,618.20 314.70,620.31 315.68,622.40 317.14,625.44"/>
        <lane id=":-28_3_2" index="2" speed="27.78" length="11.35" shape="309.42,616.36 310.75,619.52 311.69,621.67 312.68,623.79 314.17,626.87"/>
    </edge>
    <edge id=":-28_6" function="internal">
        <lane id=":-28_6_0" index="0" speed="27.78" length="3.50" shape="309.42,616.36 311.39,619.25"/>
    </edge>
    <edge id=":-30_0" function="internal">
        <lane id=":-30_0_0" index="0" allow="bicycle" speed="5.56" length="16.52" shape="192.72,106.14 191.93,102.23 191.06,98.04 190.18,93.87 189.33,89.97"/>
    </edge>
    <edge id=":-30_1" function="internal">
        <lane id=":-30_1_0" index="0" speed="16.67" length="7.95" shape="192.72,106.14 192.84,104.66 193.83,103.47 195.71,102.54 198.46,101.89"/>
    </edge>
    <edge id=":-30_2" function="internal">
        <lane id=":-30_2_0" index="0" allow="bicycle" speed="5.56" length="4.82" shape="192.72,106.14 193.29,104.76 194.01,104.20 194.90,104.44 195.95,105.49"/>
    </edge>
    <edge id=":-30_3" function="internal">
        <lane id=":-30_3_0" index="0" speed="16.67" length="5.85" shape="192.55,89.26 193.11,90.72 194.01,91.69 195.27,92.15 196.89,92.12"/>
    </edge>
    <edge id=":-30_4" function="internal">
        <lane id=":-30_4_0" index="0" allow="bicycle" speed="5.56" length="16.59" shape="192.55,89.26 193.40,93.17 194.29,97.37 195.16,101.57 195.95,105.49"/>
    </edge>
    <edge id=":-30_5" function="internal">
        <lane id=":-30_5_0" index="0" allow="bicycle" speed="5.56" length="4.82" shape="192.55,89.26 192.01,90.64 191.30,91.22 190.40,91.00 189.33,89.97"/>
    </edge>
    <edge id=":-30_6" function="internal">
        <lane id=":-30_6_0" index="0" allow="bicycle" speed="16.67" length="5.11" shape="186.80,93.55 188.17,93.18 189.05,92.45 189.43,91.38 189.33,89.97"/>
    </edge>
    <edge id=":-30_7" function="internal">
        <lane id=":-30_7_0" index="0" speed="27.78" length="10.36" shape="186.80,93.55 189.80,93.17 191.85,92.90 193.90,92.59 196.89,92.12"/>
        <lane id=":-30_7_1" index="1" speed="27.78" length="10.36" shape="187.21,96.83 190.24,96.44 192.32,96.17 194.39,95.86 197.41,95.38"/>
        <lane id=":-30_7_2" index="2" speed="27.78" length="10.36" shape="187.62,100.10 190.69,99.71 192.79,99.43 194.88,99.12 197.94,98.63"/>
        <lane id=":-30_7_3" index="3" speed="27.78" length="10.36" shape="188.03,103.38 191.13,102.99 193.25,102.70 195.37,102.38 198.46,101.89"/>
    </edge>
    <edge id=":-30_11" function="internal">
        <lane id=":-30_11_0" index="0" allow="bicycle" speed="16.67" length="8.87" shape="188.03,103.38 191.27,103.16 193.67,103.45 195.23,104.22 195.95,105.49"/>
    </edge>
    <edge id=":-32_0" function="internal">
        <lane id=":-32_0_0" index="0" speed="16.67" length="5.11" shape="195.46,125.05 195.20,123.67 194.55,122.73 193.51,122.25 192.09,122.21"/>
    </edge>
    <edge id=":-32_1" function="internal">
        <lane id=":-32_1_0" index="0" allow="bicycle" speed="5.56" length="13.05" shape="195.46,125.05 195.26,121.61 194.97,118.55 194.53,115.50 193.90,112.11"/>
    </edge>
    <edge id=":-32_2" function="internal">
        <lane id=":-32_2_0" index="0" allow="bicycle" speed="5.56" length="4.82" shape="195.46,125.05 196.23,123.78 197.04,123.33 197.88,123.71 198.76,124.91"/>
    </edge>
    <edge id=":-32_3" function="internal">
        <lane id=":-32_3_0" index="0" allow="bicycle" speed="16.67" length="5.89" shape="202.03,120.72 200.54,121.22 199.50,122.09 198.90,123.32 198.76,124.91"/>
    </edge>
    <edge id=":-32_4" function="internal">
        <lane id=":-32_4_0" index="0" speed="27.78" length="9.83" shape="202.03,120.72 199.10,121.26 197.08,121.59 195.06,121.86 192.09,122.21"/>
        <lane id=":-32_4_1" index="1" speed="27.78" length="9.83" shape="201.43,117.48 191.71,118.93"/>
        <lane id=":-32_4_2" index="2" speed="27.78" length="9.83" shape="200.83,114.23 191.32,115.66"/>
    </edge>
    <edge id=":-32_7" function="internal">
        <lane id=":-32_7_0" index="0" allow="bicycle" speed="16.67" length="8.02" shape="200.83,114.23 198.04,114.54 195.96,114.28 194.58,113.47 193.90,112.11"/>
    </edge>
    <edge id=":-32_8" function="internal">
        <lane id=":-32_8_0" index="0" allow="bicycle" speed="5.56" length="13.56" shape="197.14,111.47 197.77,114.93 198.23,118.15 198.55,121.39 198.76,124.91"/>
    </edge>
    <edge id=":-32_9" function="internal">
        <lane id=":-32_9_0" index="0" speed="16.67" length="8.08" shape="197.14,111.47 197.03,113.01 196.03,114.23 194.12,115.11 191.32,115.66"/>
    </edge>
    <edge id=":-32_10" function="internal">
        <lane id=":-32_10_0" index="0" allow="bicycle" speed="5.56" length="4.82" shape="197.14,111.47 196.57,112.84 195.84,113.41 194.95,113.16 193.90,112.11"/>
    </edge>
    <edge id=":-34_0" function="internal">
        <lane id=":-34_0_0" index="0" speed="27.78" length="8.12" shape="442.49,960.02 441.49,958.64 440.40,957.83 439.20,957.59 437.90,957.91"/>
        <lane id=":-34_0_1" index="1" speed="27.78" length="8.12" shape="445.36,958.39 443.54,955.94 441.47,954.54 439.13,954.20 436.53,954.91"/>
    </edge>
    <edge id=":-34_2" function="internal">
        <lane id=":-34_2_0" index="0" speed="27.78" length="9.92" shape="446.87,954.28 437.90,957.91"/>
        <lane id=":-34_2_1" index="1" speed="27.78" length="9.92" shape="445.73,951.18 436.53,954.91"/>
        <lane id=":-34_2_2" index="2" speed="27.78" length="9.92" shape="444.59,948.09 441.76,949.13 439.82,949.87 437.92,950.67 435.17,951.91"/>
    </edge>
    <edge id=":-8_0" function="internal">
        <lane id=":-8_0_0" index="0" allow="bicycle" speed="5.56" length="13.07" shape="552.56,1228.27 551.41,1225.02 550.38,1222.11 549.35,1219.20 548.21,1215.95"/>
    </edge>
    <edge id=":-8_1" function="internal">
        <lane id=":-8_1_0" index="0" speed="16.67" length="7.96" shape="552.56,1228.27 552.47,1226.79 553.28,1225.46 555.00,1224.28 557.64,1223.25"/>
    </edge>
    <edge id=":-8_2" function="internal">
        <lane id=":-8_2_0" index="0" allow="bicycle" speed="5.56" length="4.82" shape="552.56,1228.27 552.92,1226.83 553.56,1226.17 554.48,1226.28 555.67,1227.17"/>
    </edge>
    <edge id=":-8_3" function="internal">
        <lane id=":-8_3_0" index="0" speed="16.67" length="5.48" shape="551.32,1214.85 552.00,1216.15 552.96,1216.93 554.18,1217.20 555.68,1216.95"/>
    </edge>
    <edge id=":-8_4" function="internal">
        <lane id=":-8_4_0" index="0" allow="bicycle" speed="5.56" length="13.07" shape="551.32,1214.85 552.47,1218.10 553.49,1221.01 554.52,1223.92 555.67,1227.17"/>
    </edge>
    <edge id=":-8_5" function="internal">
        <lane id=":-8_5_0" index="0" allow="bicycle" speed="5.56" length="4.82" shape="551.32,1214.85 550.95,1216.29 550.31,1216.95 549.40,1216.84 548.21,1215.95"/>
    </edge>
    <edge id=":-8_6" function="internal">
        <lane id=":-8_6_0" index="0" allow="bicycle" speed="16.67" length="4.89" shape="546.42,1219.80 547.60,1219.24 548.29,1218.40 548.49,1217.31 548.21,1215.95"/>
    </edge>
    <edge id=":-8_7" function="internal">
        <lane id=":-8_7_0" index="0" speed="27.78" length="9.70" shape="546.42,1219.80 555.68,1216.95"/>
        <lane id=":-8_7_1" index="1" speed="27.78" length="9.70" shape="547.39,1222.96 556.66,1220.10"/>
        <lane id=":-8_7_2" index="2" speed="27.78" length="9.70" shape="548.36,1226.11 557.64,1223.25"/>
    </edge>
    <edge id=":-8_10" function="internal">
        <lane id=":-8_10_0" index="0" allow="bicycle" speed="16.67" length="8.10" shape="548.36,1226.11 551.16,1225.46 553.32,1225.42 554.82,1225.99 555.67,1227.17"/>
    </edge>
    <edge id=":2469855625_0" function="internal">
        <lane id=":2469855625_0_0" index="0" allow="bicycle" speed="5.56" length="4.82" shape="170.00,2.28 170.53,0.89 171.25,0.31 172.15,0.53 173.22,1.57"/>
    </edge>
    <edge id=":2469855636_0" function="internal">
        <lane id=":2469855636_0_0" index="0" allow="bicycle" speed="5.56" length="10.84" shape="283.13,573.13 281.88,570.29 280.94,568.17 280.00,566.05 278.75,563.21"/>
    </edge>
    <edge id=":2469855636_1" function="internal">
        <lane id=":2469855636_1_0" index="0" speed="16.67" length="6.05" shape="283.13,573.13 282.69,571.52 282.92,570.23 283.83,569.23 285.41,568.55"/>
    </edge>
    <edge id=":2469855636_2" function="internal">
        <lane id=":2469855636_2_0" index="0" allow="bicycle" speed="5.56" length="4.82" shape="283.13,573.13 283.39,571.66 283.97,570.95 284.89,570.99 286.15,571.79"/>
    </edge>
    <edge id=":2469855636_3" function="internal">
        <lane id=":2469855636_3_0" index="0" speed="16.67" length="4.65" shape="281.77,561.88 282.57,563.52 283.29,564.65 283.95,565.26 284.52,565.37"/>
    </edge>
    <edge id=":2469855636_4" function="internal">
        <lane id=":2469855636_4_0" index="0" allow="bicycle" speed="5.56" length="10.83" shape="281.77,561.88 283.02,564.72 283.95,566.84 284.89,568.96 286.15,571.79"/>
    </edge>
    <edge id=":2469855636_5" function="internal">
        <lane id=":2469855636_5_0" index="0" allow="bicycle" speed="5.56" length="4.82" shape="281.77,561.88 281.51,563.35 280.93,564.06 280.00,564.01 278.75,563.21"/>
    </edge>
    <edge id=":2469855636_6" function="internal">
        <lane id=":2469855636_6_0" index="0" allow="bicycle" speed="16.67" length="5.29" shape="276.72,567.08 278.14,566.59 278.95,565.78 279.15,564.65 278.75,563.21"/>
    </edge>
    <edge id=":2469855636_7" function="internal">
        <lane id=":2469855636_7_0" index="0" speed="27.78" length="8.12" shape="276.72,567.08 284.52,565.37"/>
        <lane id=":2469855636_7_1" index="1" speed="27.78" length="8.12" shape="277.35,570.32 285.41,568.55"/>
    </edge>
    <edge id=":2469855636_9" function="internal">
        <lane id=":2469855636_9_0" index="0" allow="bicycle" speed="16.67" length="9.48" shape="277.35,570.32 280.71,569.87 283.30,569.96 285.11,570.60 286.15,571.79"/>
    </edge>
    <edge id=":2641476040_0" function="internal">
        <lane id=":2641476040_0_0" index="0" speed="27.78" length="5.72" shape="454.84,922.22 455.64,923.36 456.71,923.92 458.08,923.90 459.72,923.30"/>
    </edge>
    <edge id=":2641476040_1" function="internal">
        <lane id=":2641476040_1_0" index="0" speed="27.78" length="14.49" shape="451.84,923.59 454.01,927.03 456.27,928.83 458.77,930.47 461.69,933.46"/>
        <lane id=":2641476040_1_1" index="1" speed="27.78" length="14.49" shape="448.84,924.96 451.09,928.59 453.43,930.53 456.02,932.30 459.07,935.47"/>
    </edge>
    <edge id=":2641476040_3" function="internal">
        <lane id=":2641476040_3_0" index="0" speed="27.78" length="14.13" shape="447.56,929.00 451.51,927.85 454.44,927.76 457.34,927.61 461.20,926.25"/>
        <lane id=":2641476040_3_1" index="1" speed="27.78" length="14.13" shape="448.86,932.03 452.87,930.86 455.84,930.76 458.77,930.58 462.68,929.20"/>
    </edge>
    <edge id=":2641476040_5" function="internal">
        <lane id=":2641476040_5_0" index="0" speed="27.78" length="8.44" shape="450.17,935.06 453.15,934.04 455.63,933.77 457.60,934.25 459.07,935.47"/>
        <lane id=":2641476040_5_1" index="1" speed="27.78" length="8.44" shape="450.17,935.06 451.81,934.67 453.41,934.94 454.95,935.88 456.45,937.47"/>
    </edge>
    <edge id=":2641476049_0" function="internal">
        <lane id=":2641476049_0_0" index="0" speed="20.83" length="6.44" shape="437.03,875.61 435.89,876.47 435.37,877.69 435.44,879.29 436.13,881.26"/>
    </edge>
    <edge id=":2641476049_1" function="internal">
        <lane id=":2641476049_1_0" index="0" speed="13.89" length="4.82" shape="437.03,875.61 435.56,875.39 434.84,874.81 434.86,873.89 435.64,872.62"/>
    </edge>
    <edge id=":2641476049_2" function="internal">
        <lane id=":2641476049_2_0" index="0" speed="20.83" length="6.30" shape="430.91,869.67 431.91,871.46 433.04,872.54 434.28,872.93 435.64,872.62"/>
    </edge>
    <edge id=":2641476049_3" function="internal">
        <lane id=":2641476049_3_0" index="0" speed="27.78" length="12.75" shape="430.91,869.67 432.44,873.12 433.49,875.48 434.56,877.83 436.13,881.26"/>
        <lane id=":2641476049_3_1" index="1" speed="27.78" length="12.75" shape="427.89,871.01 429.43,874.47 430.49,876.83 431.55,879.19 433.13,882.63"/>
        <lane id=":2641476049_3_2" index="2" speed="27.78" length="12.75" shape="424.88,872.35 426.42,875.82 427.48,878.19 428.55,880.55 430.12,884.01"/>
    </edge>
    <edge id=":2641476049_6" function="internal">
        <lane id=":2641476049_6_0" index="0" speed="20.83" length="12.94" shape="423.31,876.45 427.08,875.03 429.98,874.33 432.63,873.73 435.64,872.62"/>
    </edge>
    <edge id=":2641476049_7" function="internal">
        <lane id=":2641476049_7_0" index="0" speed="27.78" length="4.08" shape="424.66,879.45 427.37,878.67 427.71,878.71"/>
        <lane id=":2641476049_7_1" index="1" speed="27.78" length="4.08" shape="426.02,882.46 427.33,882.08 428.46,882.21 429.39,882.85 430.12,884.01"/>
    </edge>
    <edge id=":2641476049_9" function="internal">
        <lane id=":2641476049_9_0" index="0" speed="27.78" length="7.13" shape="427.71,878.71 429.69,878.94 431.60,880.26 433.13,882.63"/>
    </edge>
    <edge id=":2648933656_0" function="internal">
        <lane id=":2648933656_0_0" index="0" speed="13.89" length="4.82" shape="608.66,790.16 610.13,790.36 610.86,790.92 610.86,791.84 610.10,793.13"/>
    </edge>
    <edge id=":2664295618_0" function="internal">
        <lane id=":2664295618_0_0" index="0" allow="bicycle" speed="5.56" length="4.82" shape="587.09,1317.09 586.72,1318.53 586.07,1319.19 585.16,1319.07 583.97,1318.18"/>
    </edge>
    <edge id=":2679558273_0" function="internal">
        <lane id=":2679558273_0_0" index="0" speed="27.78" length="8.36" shape="555.26,1256.82 554.51,1255.46 553.48,1254.63 552.16,1254.34 550.56,1254.58"/>
        <lane id=":2679558273_0_1" index="1" speed="27.78" length="8.36" shape="558.35,1255.66 556.95,1253.10 555.03,1251.54 552.59,1250.98 549.64,1251.41"/>
    </edge>
    <edge id=":2679558273_2" function="internal">
        <lane id=":2679558273_2_0" index="0" speed="27.78" length="13.79" shape="558.35,1255.66 556.47,1252.10 554.49,1250.02 552.54,1247.92 550.72,1244.34"/>
    </edge>
    <edge id=":2679558273_3" function="internal">
        <lane id=":2679558273_3_0" index="0" speed="27.78" length="9.96" shape="560.13,1251.80 550.56,1254.58"/>
        <lane id=":2679558273_3_1" index="1" speed="27.78" length="9.96" shape="559.20,1248.63 549.64,1251.41"/>
        <lane id=":2679558273_3_2" index="2" speed="27.78" length="9.96" shape="558.28,1245.46 548.72,1248.24"/>
    </edge>
    <edge id=":2679558273_6" function="internal">
        <lane id=":2679558273_6_0" index="0" speed="27.78" length="5.60" shape="558.28,1245.46 556.76,1245.69 555.51,1245.39 554.53,1244.57 553.83,1243.24"/>
    </edge>
    <edge id=":338509113_0" function="internal">
        <lane id=":338509113_0_0" index="0" speed="27.78" length="5.82" shape="471.36,943.76 469.88,944.70 469.00,945.78 468.73,947.01 469.07,948.38"/>
    </edge>
    <edge id=":338509113_1" function="internal">