<nodes>
   
   <!-- Juntar los nodos de San Juan con la 65 "a" -->
 <join nodes="-32 -30 359952241 359952243"/>
 
  <!--  "b" -->
 <join nodes="359741297 2469855636 "/>
 
  <!--  "c" -->
 <join nodes="-26 -28"/>
 
 <!--  "d" -->
 <join nodes="-24 2641476049 "/>
 
 <!--  "e" -->
 <join nodes="360500037 338509113 2641476040 -22"/>
 
  <!--  "f" -->
 <join nodes="-18 -12 360499933 "/>
 
   <!--  "g" -->
  <join nodes="2679558273 -10 360499935 -20 -8 361278650"/> 
 
</nodes> 