<nodes>
   
   <!-- "a" -->
 <join nodes="-10 -12 359952241 359952243"/>
 
  <!--  "b" -->
 <join nodes="359741297 2469855636 "/>
 
  <!--  "c" -->
 <join nodes="-16 -14 "/>
 
 <!--  "d" -->
 <join nodes="-18 2641476049 "/>
 
 <!--  "e" -->
 <join nodes="360500037 338509113 2641476040 -20"/>
 
  <!--  "f" -->
 <join nodes="-24 -30 360499933 "/>
 
   <!--  "g" -->
  <join nodes="2679558273 -32 360499935 -22 -34 361278650"/> 
 
</nodes> 