<?xml version="1.0" encoding="UTF-8"?>

<!-- generated on 03/25/15 15:40:12 by SUMO netconvert Version 0.22.0
<?xml version="1.0" encoding="UTF-8"?>

<configuration xmlns:xsi="http://www.w3.org/2001/XMLSchema-instance" xsi:noNamespaceSchemaLocation="http://sumo.dlr.de/xsd/netconvertConfiguration.xsd">

    <input>
        <sumo-net-file value="inter_edit1.net.xml"/>
        <connection-files value="conexiones.con.xml"/>
    </input>

    <output>
        <output-file value="inter_edit1.net.xml"/>
    </output>

    <processing>
        <no-turnarounds value="true"/>
        <offset.disable-normalization value="true"/>
    </processing>

</configuration>
-->

<net version="0.13" xmlns:xsi="http://www.w3.org/2001/XMLSchema-instance" xsi:noNamespaceSchemaLocation="http://sumo.dlr.de/xsd/net_file.xsd">

    <location netOffset="-435268.33,-690613.40" convBoundary="0.00,0.00,685.42,1405.39" origBoundary="-75.585171,6.247624,-75.578982,6.260340" projParameter="+proj=utm +zone=18 +ellps=WGS84 +datum=WGS84 +units=m +no_defs"/>

    <edge id=":-34_0" function="internal">
        <lane id=":-34_0_0" index="0" speed="27.78" length="8.12" shape="442.49,960.02 441.49,958.64 440.39,957.83 439.20,957.59 437.90,957.92"/>
        <lane id=":-34_0_1" index="1" speed="27.78" length="8.12" shape="445.36,958.40 443.54,955.94 441.46,954.54 439.12,954.20 436.53,954.91"/>
    </edge>
    <edge id=":-34_2" function="internal">
        <lane id=":-34_2_0" index="0" speed="27.78" length="9.72" shape="446.68,954.35 437.90,957.92"/>
        <lane id=":-34_2_1" index="1" speed="27.78" length="9.72" shape="445.54,951.26 436.53,954.91"/>
        <lane id=":-34_2_2" index="2" speed="27.78" length="9.72" shape="444.40,948.16 435.16,951.91"/>
    </edge>
    <edge id=":2469855625_0" function="internal">
        <lane id=":2469855625_0_0" index="0" allow="bicycle" speed="5.56" length="4.82" shape="170.00,2.28 170.54,0.89 171.25,0.31 172.15,0.53 173.22,1.56"/>
    </edge>
    <edge id=":2648933656_0" function="internal">
        <lane id=":2648933656_0_0" index="0" speed="13.89" length="4.82" shape="608.66,790.16 610.13,790.36 610.86,790.92 610.85,791.84 610.10,793.12"/>
    </edge>
    <edge id=":2664295618_0" function="internal">
        <lane id=":2664295618_0_0" index="0" allow="bicycle" speed="5.56" length="4.82" shape="565.93,1256.21 565.56,1257.65 564.92,1258.32 564.00,1258.20 562.81,1257.31"/>
    </edge>
    <edge id=":2679558272_0" function="internal">
        <lane id=":2679558272_0_0" index="0" speed="27.78" length="0.10" shape="556.46,1260.02 556.47,1260.07"/>
        <lane id=":2679558272_0_1" index="1" speed="27.78" length="0.10" shape="559.58,1258.96 559.58,1258.94"/>
    </edge>
    <edge id=":cluster_-10_-20_-8_2679558273_360499935_361278650_0" function="internal">
        <lane id=":cluster_-10_-20_-8_2679558273_360499935_361278650_0_0" index="0" allow="bicycle" speed="5.56" length="40.96" shape="561.74,1254.26 559.14,1246.90 554.92,1234.95 550.70,1223.00 548.10,1215.64"/>
    </edge>
    <edge id=":cluster_-10_-20_-8_2679558273_360499935_361278650_1" function="internal">
        <lane id=":cluster_-10_-20_-8_2679558273_360499935_361278650_1_0" index="0" allow="bicycle" speed="5.56" length="4.82" shape="561.74,1254.26 562.14,1252.83 562.79,1252.18 563.71,1252.32 564.88,1253.24"/>
    </edge>
    <edge id=":cluster_-10_-20_-8_2679558273_360499935_361278650_2" function="internal">
        <lane id=":cluster_-10_-20_-8_2679558273_360499935_361278650_2_0" index="0" speed="27.78" length="6.88" shape="555.12,1256.43 554.34,1255.27 553.06,1254.65 551.30,1254.57 549.04,1255.02"/>
    </edge>
    <edge id=":cluster_-10_-20_-8_2679558273_360499935_361278650_3" function="internal">
        <lane id=":cluster_-10_-20_-8_2679558273_360499935_361278650_3_0" index="0" speed="27.78" length="40.89" shape="555.12,1256.43 551.96,1247.79 548.18,1237.21 544.45,1226.62 541.43,1217.93"/>
        <lane id=":cluster_-10_-20_-8_2679558273_360499935_361278650_3_1" index="1" speed="27.78" length="40.89" shape="558.26,1255.40 555.09,1246.76 551.31,1236.16 547.57,1225.55 544.55,1216.86"/>
    </edge>
    <edge id=":cluster_-10_-20_-8_2679558273_360499935_361278650_5" function="internal">
        <lane id=":cluster_-10_-20_-8_2679558273_360499935_361278650_5_0" index="0" speed="27.78" length="5.61" shape="577.09,1245.41 575.81,1245.92 575.08,1246.84 574.89,1248.15 575.24,1249.85"/>
    </edge>
    <edge id=":cluster_-10_-20_-8_2679558273_360499935_361278650_6" function="internal">
        <lane id=":cluster_-10_-20_-8_2679558273_360499935_361278650_6_0" index="0" speed="27.78" length="29.68" shape="577.09,1245.41 570.58,1247.18 564.73,1249.42 558.05,1252.06 549.04,1255.02"/>
        <lane id=":cluster_-10_-20_-8_2679558273_360499935_361278650_6_1" index="1" speed="27.78" length="29.68" shape="576.16,1242.23 569.50,1243.51 563.35,1244.66 556.36,1246.22 547.20,1248.69"/>
    </edge>
    <edge id=":cluster_-10_-20_-8_2679558273_360499935_361278650_8" function="internal">
        <lane id=":cluster_-10_-20_-8_2679558273_360499935_361278650_8_0" index="0" speed="27.78" length="44.70" shape="576.16,1242.23 566.17,1242.29 557.57,1238.09 550.36,1229.61 544.55,1216.86"/>
    </edge>
    <edge id=":cluster_-10_-20_-8_2679558273_360499935_361278650_9" function="internal">
        <lane id=":cluster_-10_-20_-8_2679558273_360499935_361278650_9_0" index="0" allow="bicycle" speed="5.56" length="41.01" shape="551.22,1214.57 553.82,1221.94 558.05,1233.90 562.27,1245.87 564.88,1253.24"/>
    </edge>
    <edge id=":cluster_-10_-20_-8_2679558273_360499935_361278650_10" function="internal">
        <lane id=":cluster_-10_-20_-8_2679558273_360499935_361278650_10_0" index="0" allow="bicycle" speed="5.56" length="4.82" shape="551.22,1214.57 550.84,1216.01 550.19,1216.66 549.28,1216.54 548.10,1215.64"/>
    </edge>
    <edge id=":cluster_-10_-20_-8_2679558273_360499935_361278650_11" function="internal">
        <lane id=":cluster_-10_-20_-8_2679558273_360499935_361278650_11_0" index="0" speed="27.78" length="7.33" shape="561.59,1211.00 562.47,1212.55 563.78,1213.45 565.52,1213.71 567.69,1213.33"/>
    </edge>
    <edge id=":cluster_-10_-20_-8_2679558273_360499935_361278650_12" function="internal">
        <lane id=":cluster_-10_-20_-8_2679558273_360499935_361278650_12_0" index="0" speed="27.78" length="41.15" shape="561.59,1211.00 564.70,1219.71 568.51,1230.40 572.27,1241.10 575.24,1249.85"/>
        <lane id=":cluster_-10_-20_-8_2679558273_360499935_361278650_12_1" index="1" speed="27.78" length="41.15" shape="558.47,1212.07 561.58,1220.78 565.38,1231.44 569.13,1242.13 572.10,1250.88"/>
    </edge>
    <edge id=":cluster_-10_-20_-8_2679558273_360499935_361278650_14" function="internal">
        <lane id=":cluster_-10_-20_-8_2679558273_360499935_361278650_14_0" index="0" speed="27.78" length="5.06" shape="539.40,1221.80 540.68,1221.24 541.44,1220.41 541.69,1219.31 541.43,1217.93"/>
    </edge>
    <edge id=":cluster_-10_-20_-8_2679558273_360499935_361278650_15" function="internal">
        <lane id=":cluster_-10_-20_-8_2679558273_360499935_361278650_15_0" index="0" speed="27.78" length="29.54" shape="539.40,1221.80 547.84,1219.41 553.58,1217.66 559.30,1215.86 567.69,1213.33"/>
        <lane id=":cluster_-10_-20_-8_2679558273_360499935_361278650_15_1" index="1" speed="27.78" length="29.54" shape="540.32,1224.97 548.76,1222.58 554.50,1220.83 560.22,1219.03 568.62,1216.50"/>
        <lane id=":cluster_-10_-20_-8_2679558273_360499935_361278650_15_2" index="2" speed="27.78" length="29.54" shape="541.24,1228.14 549.68,1225.75 555.42,1224.00 561.15,1222.19 569.55,1219.66"/>
    </edge>
    <edge id=":cluster_-10_-20_-8_2679558273_360499935_361278650_18" function="internal">
        <lane id=":cluster_-10_-20_-8_2679558273_360499935_361278650_18_0" index="0" speed="27.78" length="43.00" shape="541.24,1228.14 551.23,1227.35 559.70,1230.88 566.66,1238.72 572.10,1250.88"/>
    </edge>
    <edge id=":cluster_-10_-20_-8_2679558273_360499935_361278650_19" function="internal">
        <lane id=":cluster_-10_-20_-8_2679558273_360499935_361278650_19_0" index="0" speed="27.78" length="31.24" shape="541.24,1228.14 550.44,1231.04 554.49,1235.43 553.42,1241.31 547.20,1248.69"/>
    </edge>
    <edge id=":cluster_-12_-18_360499933_0" function="internal">
        <lane id=":cluster_-12_-18_360499933_0_0" index="0" allow="bicycle" speed="5.56" length="12.18" shape="477.93,1003.56 476.85,1000.43 475.85,997.83 474.74,995.29 473.29,992.31"/>
    </edge>
    <edge id=":cluster_-12_-18_360499933_1" function="internal">
        <lane id=":cluster_-12_-18_360499933_1_0" index="0" allow="bicycle" speed="5.56" length="4.82" shape="477.93,1003.56 478.35,1002.14 479.01,1001.50 479.92,1001.65 481.08,1002.58"/>
    </edge>
    <edge id=":cluster_-12_-18_360499933_2" function="internal">
        <lane id=":cluster_-12_-18_360499933_2_0" index="0" speed="27.78" length="5.18" shape="468.19,1006.60 467.45,1005.34 466.51,1004.63 465.37,1004.49 464.04,1004.90"/>
    </edge>
    <edge id=":cluster_-12_-18_360499933_3" function="internal">
        <lane id=":cluster_-12_-18_360499933_3_0" index="0" speed="27.78" length="10.57" shape="468.19,1006.60 463.82,997.67"/>
        <lane id=":cluster_-12_-18_360499933_3_1" index="1" speed="27.78" length="10.57" shape="471.35,1005.61 469.67,1002.91 467.81,1001.53 465.84,1000.21 463.82,997.67"/>
        <lane id=":cluster_-12_-18_360499933_3_2" index="2" speed="27.78" length="10.57" shape="471.35,1005.61 470.13,1002.70 469.24,1000.72 468.24,998.80 466.69,996.04"/>
    </edge>
    <edge id=":cluster_-12_-18_360499933_6" function="internal">
        <lane id=":cluster_-12_-18_360499933_6_0" index="0" speed="27.78" length="7.64" shape="492.27,992.83 490.95,993.81 490.25,995.26 490.16,997.19 490.68,999.59"/>
    </edge>
    <edge id=":cluster_-12_-18_360499933_7" function="internal">
        <lane id=":cluster_-12_-18_360499933_7_0" index="0" speed="27.78" length="30.89" shape="492.27,992.83 483.37,996.74 476.42,999.58 470.33,1002.06 464.04,1004.90"/>
        <lane id=":cluster_-12_-18_360499933_7_1" index="1" speed="27.78" length="30.89" shape="492.27,992.83 483.15,996.28 475.71,998.09 469.13,999.55 462.61,1001.92"/>
    </edge>
    <edge id=":cluster_-12_-18_360499933_9" function="internal">
        <lane id=":cluster_-12_-18_360499933_9_0" index="0" speed="27.78" length="26.83" shape="490.89,989.83 481.13,994.00 473.84,996.42 469.02,997.10 466.69,996.04"/>
    </edge>
    <edge id=":cluster_-12_-18_360499933_10" function="internal">
        <lane id=":cluster_-12_-18_360499933_10_0" index="0" speed="27.78" length="30.89" shape="489.52,986.83 480.83,991.21 474.33,995.09 468.70,998.62 462.61,1001.92"/>
    </edge>
    <edge id=":cluster_-12_-18_360499933_11" function="internal">
        <lane id=":cluster_-12_-18_360499933_11_0" index="0" speed="27.78" length="26.83" shape="489.52,986.83 478.43,991.85 470.45,995.33 465.58,997.27 463.82,997.67"/>
    </edge>
    <edge id=":cluster_-12_-18_360499933_12" function="internal">
        <lane id=":cluster_-12_-18_360499933_12_0" index="0" speed="27.78" length="14.99" shape="485.48,985.42 487.27,989.53 488.38,992.39 489.35,995.31 490.68,999.59"/>
        <lane id=":cluster_-12_-18_360499933_12_1" index="1" speed="27.78" length="14.99" shape="485.48,985.42 486.79,989.71 486.81,992.88 486.68,996.11 487.53,1000.57"/>
        <lane id=":cluster_-12_-18_360499933_12_2" index="2" speed="27.78" length="14.99" shape="482.60,987.05 484.29,990.97 485.35,993.70 486.26,996.49 487.53,1000.57"/>
    </edge>
    <edge id=":cluster_-12_-18_360499933_15" function="internal">
        <lane id=":cluster_-12_-18_360499933_15_0" index="0" allow="bicycle" speed="5.56" length="12.88" shape="476.16,990.69 477.66,993.76 478.87,996.53 479.95,999.35 481.08,1002.58"/>
    </edge>
    <edge id=":cluster_-12_-18_360499933_16" function="internal">
        <lane id=":cluster_-12_-18_360499933_16_0" index="0" allow="bicycle" speed="5.56" length="4.82" shape="476.16,990.69 476.05,992.17 475.54,992.94 474.62,992.98 473.29,992.31"/>
    </edge>
    <edge id=":cluster_-22_2641476040_338509113_360500037_0" function="internal">
        <lane id=":cluster_-22_2641476040_338509113_360500037_0_0" index="0" allow="bicycle" speed="5.56" length="29.69" shape="454.30,954.79 451.32,949.53 446.79,941.99 442.27,934.43 439.30,929.17"/>
    </edge>
    <edge id=":cluster_-22_2641476040_338509113_360500037_1" function="internal">
        <lane id=":cluster_-22_2641476040_338509113_360500037_1_0" index="0" allow="bicycle" speed="5.56" length="4.83" shape="454.30,954.79 454.56,953.32 455.14,952.61 456.07,952.65 457.32,953.45"/>
    </edge>
    <edge id=":cluster_-22_2641476040_338509113_360500037_2" function="internal">
        <lane id=":cluster_-22_2641476040_338509113_360500037_2_0" index="0" speed="27.78" length="7.52" shape="470.50,944.17 469.39,944.92 468.77,945.85 468.65,946.97 469.02,948.27"/>
    </edge>
    <edge id=":cluster_-22_2641476040_338509113_360500037_3" function="internal">
        <lane id=":cluster_-22_2641476040_338509113_360500037_3_0" index="0" speed="27.78" length="25.36" shape="470.50,944.17 463.63,947.49 458.87,949.67 454.02,951.62 446.87,954.28"/>
    </edge>
    <edge id=":cluster_-22_2641476040_338509113_360500037_4" function="internal">
        <lane id=":cluster_-22_2641476040_338509113_360500037_4_0" index="0" speed="27.78" length="7.52" shape="469.02,941.22 466.75,942.75 465.49,944.66 465.24,946.95 466.00,949.61"/>
    </edge>
    <edge id=":cluster_-22_2641476040_338509113_360500037_5" function="internal">
        <lane id=":cluster_-22_2641476040_338509113_360500037_5_0" index="0" speed="27.78" length="25.36" shape="469.02,941.22 462.25,944.49 457.56,946.64 452.78,948.56 445.73,951.19"/>
        <lane id=":cluster_-22_2641476040_338509113_360500037_5_1" index="1" speed="27.78" length="25.36" shape="467.54,938.27 460.87,941.50 456.25,943.61 451.54,945.50 444.59,948.09"/>
    </edge>
    <edge id=":cluster_-22_2641476040_338509113_360500037_7" function="internal">
        <lane id=":cluster_-22_2641476040_338509113_360500037_7_0" index="0" speed="27.78" length="6.47" shape="454.56,921.60 455.49,923.01 456.71,923.74 458.20,923.79 459.97,923.17"/>
    </edge>
    <edge id=":cluster_-22_2641476040_338509113_360500037_8" function="internal">
        <lane id=":cluster_-22_2641476040_338509113_360500037_8_0" index="0" speed="27.78" length="30.39" shape="454.56,921.60 458.88,930.24 462.61,936.62 465.93,942.17 469.02,948.27"/>
        <lane id=":cluster_-22_2641476040_338509113_360500037_8_1" index="1" speed="27.78" length="30.39" shape="451.60,923.07 455.91,931.69 459.62,938.03 462.92,943.52 466.00,949.61"/>
        <lane id=":cluster_-22_2641476040_338509113_360500037_8_2" index="2" speed="27.78" length="30.39" shape="448.64,924.54 453.41,932.92 458.14,938.76 462.45,943.75 466.00,949.61"/>
    </edge>
    <edge id=":cluster_-22_2641476040_338509113_360500037_11" function="internal">
        <lane id=":cluster_-22_2641476040_338509113_360500037_11_0" index="0" allow="bicycle" speed="5.56" length="29.83" shape="442.26,927.70 445.23,932.99 449.78,940.58 454.33,948.17 457.32,953.45"/>
    </edge>
    <edge id=":cluster_-22_2641476040_338509113_360500037_12" function="internal">
        <lane id=":cluster_-22_2641476040_338509113_360500037_12_0" index="0" allow="bicycle" speed="5.56" length="4.82" shape="442.26,927.70 442.07,929.18 441.51,929.91 440.59,929.91 439.30,929.17"/>
    </edge>
    <edge id=":cluster_-22_2641476040_338509113_360500037_13" function="internal">
        <lane id=":cluster_-22_2641476040_338509113_360500037_13_0" index="0" speed="27.78" length="24.94" shape="437.72,933.36 444.35,930.39 448.91,928.41 453.44,926.36 459.97,923.17"/>
        <lane id=":cluster_-22_2641476040_338509113_360500037_13_1" index="1" speed="27.78" length="24.94" shape="437.72,933.36 444.63,930.83 449.66,929.88 454.65,928.87 461.45,926.12"/>
        <lane id=":cluster_-22_2641476040_338509113_360500037_13_2" index="2" speed="27.78" length="24.94" shape="438.86,936.46 445.59,933.45 450.23,931.44 454.82,929.36 461.45,926.12"/>
        <lane id=":cluster_-22_2641476040_338509113_360500037_13_3" index="3" speed="27.78" length="24.94" shape="438.86,936.46 445.87,933.89 450.97,932.92 456.03,931.87 462.93,929.07"/>
        <lane id=":cluster_-22_2641476040_338509113_360500037_13_4" index="4" speed="27.78" length="24.94" shape="440.00,939.57 446.83,936.51 451.54,934.47 456.20,932.36 462.93,929.07"/>
    </edge>
    <edge id=":cluster_-24_2641476049_0" function="internal">
        <lane id=":cluster_-24_2641476049_0_0" index="0" allow="bicycle" speed="5.56" length="12.82" shape="419.80,888.81 418.34,885.73 417.05,883.01 415.77,880.30 414.31,877.22"/>
    </edge>
    <edge id=":cluster_-24_2641476049_1" function="internal">
        <lane id=":cluster_-24_2641476049_1_0" index="0" allow="bicycle" speed="5.56" length="4.82" shape="419.80,888.81 420.03,887.34 420.61,886.62 421.54,886.65 422.80,887.44"/>
    </edge>
    <edge id=":cluster_-24_2641476049_2" function="internal">
        <lane id=":cluster_-24_2641476049_2_0" index="0" speed="20.84" length="6.45" shape="436.96,875.65 435.86,876.49 435.36,877.72 435.46,879.33 436.16,881.33"/>
    </edge>
    <edge id=":cluster_-24_2641476049_3" function="internal">
        <lane id=":cluster_-24_2641476049_3_0" index="0" speed="20.84" length="6.50" shape="430.79,869.41 431.85,871.31 432.99,872.49 434.23,872.94 435.57,872.66"/>
    </edge>
    <edge id=":cluster_-24_2641476049_4" function="internal">
        <lane id=":cluster_-24_2641476049_4_0" index="0" speed="27.78" length="13.03" shape="430.79,869.41 432.37,872.96 433.45,875.38 434.55,877.80 436.16,881.33"/>
        <lane id=":cluster_-24_2641476049_4_1" index="1" speed="27.78" length="13.03" shape="427.81,870.83 429.38,874.36 430.46,876.78 431.55,879.19 433.16,882.70"/>
        <lane id=":cluster_-24_2641476049_4_2" index="2" speed="27.78" length="13.03" shape="424.83,872.24 426.39,875.76 427.47,878.17 428.56,880.57 430.16,884.08"/>
    </edge>
    <edge id=":cluster_-24_2641476049_7" function="internal">
        <lane id=":cluster_-24_2641476049_7_0" index="0" allow="bicycle" speed="5.56" length="12.87" shape="417.29,875.81 418.76,878.89 420.05,881.62 421.34,884.35 422.80,887.44"/>
    </edge>
    <edge id=":cluster_-24_2641476049_8" function="internal">
        <lane id=":cluster_-24_2641476049_8_0" index="0" allow="bicycle" speed="5.56" length="4.82" shape="417.29,875.81 417.08,877.28 416.51,878.00 415.59,877.98 414.31,877.22"/>
    </edge>
    <edge id=":cluster_-24_2641476049_9" function="internal">
        <lane id=":cluster_-24_2641476049_9_0" index="0" speed="20.84" length="24.54" shape="412.68,881.46 420.25,878.06 426.54,875.79 431.62,874.15 435.57,872.66"/>
    </edge>
    <edge id=":cluster_-24_2641476049_10" function="internal">
        <lane id=":cluster_-24_2641476049_10_0" index="0" speed="27.78" length="15.33" shape="414.16,884.41 421.38,881.28 426.96,879.95 428.35,880.12"/>
        <lane id=":cluster_-24_2641476049_10_1" index="1" speed="27.78" length="15.33" shape="415.64,887.36 421.44,884.70 425.79,883.27 428.69,883.06 430.16,884.08"/>
    </edge>
    <edge id=":cluster_-24_2641476049_12" function="internal">
        <lane id=":cluster_-24_2641476049_12_0" index="0" speed="27.78" length="5.77" shape="428.35,880.12 430.88,880.42 433.16,882.70"/>
    </edge>
    <edge id=":cluster_-26_-28_0" function="internal">
        <lane id=":cluster_-26_-28_0_0" index="0" allow="bicycle" speed="5.56" length="12.91" shape="308.18,629.76 306.83,626.61 305.63,623.83 304.42,621.05 303.03,617.92"/>
    </edge>
    <edge id=":cluster_-26_-28_1" function="internal">
        <lane id=":cluster_-26_-28_1_0" index="0" allow="bicycle" speed="5.56" length="4.82" shape="308.18,629.76 308.39,628.29 308.95,627.55 309.87,627.57 311.15,628.32"/>
    </edge>
    <edge id=":cluster_-26_-28_2" function="internal">
        <lane id=":cluster_-26_-28_2_0" index="0" speed="27.78" length="8.39" shape="321.99,620.05 320.60,620.60 319.82,621.44 319.66,622.57 320.11,624.00"/>
    </edge>
    <edge id=":cluster_-26_-28_3" function="internal">
        <lane id=":cluster_-26_-28_3_0" index="0" speed="27.78" length="20.89" shape="321.99,620.05 316.11,621.48 311.92,622.55 307.73,623.62 301.84,625.05"/>
    </edge>
    <edge id=":cluster_-26_-28_4" function="internal">
        <lane id=":cluster_-26_-28_4_0" index="0" speed="27.78" length="8.39" shape="321.24,616.84 318.20,618.03 316.51,619.86 316.16,622.33 317.14,625.43"/>
    </edge>
    <edge id=":cluster_-26_-28_5" function="internal">
        <lane id=":cluster_-26_-28_5_0" index="0" speed="27.78" length="20.89" shape="321.24,616.84 315.47,618.77 311.54,620.95 307.61,623.12 301.84,625.05"/>
        <lane id=":cluster_-26_-28_5_1" index="1" speed="27.78" length="20.89" shape="321.24,616.84 315.35,618.27 311.16,619.34 306.97,620.41 301.09,621.84"/>
    </edge>
    <edge id=":cluster_-26_-28_7" function="internal">
        <lane id=":cluster_-26_-28_7_0" index="0" allow="bicycle" speed="16.67" length="18.71" shape="321.24,616.84 313.76,618.41 308.23,619.11 304.66,618.94 303.03,617.92"/>
    </edge>
    <edge id=":cluster_-26_-28_8" function="internal">
        <lane id=":cluster_-26_-28_8_0" index="0" speed="27.78" length="12.60" shape="315.01,612.60 316.44,616.02 317.44,618.35 318.51,620.66 320.11,624.00"/>
        <lane id=":cluster_-26_-28_8_1" index="1" speed="27.78" length="12.60" shape="311.99,613.94 313.44,617.39 314.45,619.74 315.52,622.06 317.14,625.43"/>
        <lane id=":cluster_-26_-28_8_2" index="2" speed="27.78" length="12.60" shape="308.98,615.28 310.43,618.76 311.45,621.13 312.54,623.47 314.17,626.87"/>
    </edge>
    <edge id=":cluster_-26_-28_11" function="internal">
        <lane id=":cluster_-26_-28_11_0" index="0" speed="27.78" length="9.25" shape="308.98,615.28 309.68,618.65 308.73,621.40 306.12,623.54 305.58,623.73"/>
        <lane id=":cluster_-26_-28_11_1" index="1" speed="27.78" length="9.25" shape="308.98,615.28 309.15,617.29 307.90,619.06 305.21,620.57 304.33,620.84"/>
    </edge>
    <edge id=":cluster_-26_-28_15" function="internal">
        <lane id=":cluster_-26_-28_15_0" index="0" speed="27.78" length="3.97" shape="305.58,623.73 301.84,625.05"/>
    </edge>
    <edge id=":cluster_-26_-28_16" function="internal">
        <lane id=":cluster_-26_-28_16_0" index="0" speed="27.78" length="3.39" shape="304.33,620.84 301.09,621.84"/>
    </edge>
    <edge id=":cluster_-26_-28_13" function="internal">
        <lane id=":cluster_-26_-28_13_0" index="0" allow="bicycle" speed="5.56" length="12.81" shape="306.05,616.58 307.43,619.69 308.62,622.44 309.81,625.19 311.15,628.32"/>
    </edge>
    <edge id=":cluster_-26_-28_14" function="internal">
        <lane id=":cluster_-26_-28_14_0" index="0" allow="bicycle" speed="5.56" length="4.82" shape="306.05,616.58 305.80,618.04 305.21,618.76 304.29,618.71 303.03,617.92"/>
    </edge>
    <edge id=":cluster_-30_-32_359952241_359952243_0" function="internal">
        <lane id=":cluster_-30_-32_359952241_359952243_0_0" index="0" allow="bicycle" speed="5.56" length="35.59" shape="195.45,125.02 194.56,118.12 192.71,107.45 190.71,96.81 189.33,89.97"/>
    </edge>
    <edge id=":cluster_-30_-32_359952241_359952243_1" function="internal">
        <lane id=":cluster_-30_-32_359952241_359952243_1_0" index="0" allow="bicycle" speed="5.56" length="4.82" shape="195.45,125.02 196.20,123.73 197.00,123.26 197.85,123.62 198.75,124.80"/>
    </edge>
    <edge id=":cluster_-30_-32_359952241_359952243_2" function="internal">
        <lane id=":cluster_-30_-32_359952241_359952243_2_0" index="0" speed="27.78" length="5.46" shape="217.10,119.71 215.83,120.15 214.96,120.98 214.48,122.19 214.40,123.80"/>
    </edge>
    <edge id=":cluster_-30_-32_359952241_359952243_3" function="internal">
        <lane id=":cluster_-30_-32_359952241_359952243_3_0" index="0" speed="27.78" length="26.95" shape="217.10,119.71 209.15,120.85 203.67,121.32 198.18,121.66 190.18,122.43"/>
        <lane id=":cluster_-30_-32_359952241_359952243_3_1" index="1" speed="27.78" length="26.95" shape="216.61,116.45 208.69,117.59 203.23,118.04 197.76,118.38 189.79,119.16"/>
        <lane id=":cluster_-30_-32_359952241_359952243_3_2" index="2" speed="27.78" length="26.95" shape="216.11,113.18 208.23,114.32 202.79,114.77 197.34,115.11 189.41,115.88"/>
        <lane id=":cluster_-30_-32_359952241_359952243_3_3" index="3" speed="27.78" length="26.95" shape="215.62,109.92 207.81,111.56 202.55,113.14 197.27,114.60 189.41,115.88"/>
    </edge>
    <edge id=":cluster_-30_-32_359952241_359952243_7" function="internal">
        <lane id=":cluster_-30_-32_359952241_359952243_7_0" index="0" speed="27.78" length="12.22" shape="206.37,86.22 207.08,88.03 208.35,89.22 210.17,89.77 212.55,89.68"/>
    </edge>
    <edge id=":cluster_-30_-32_359952241_359952243_8" function="internal">
        <lane id=":cluster_-30_-32_359952241_359952243_8_0" index="0" speed="27.78" length="38.04" shape="206.37,86.22 208.75,96.19 211.14,104.91 213.16,113.68 214.40,123.80"/>
    </edge>
    <edge id=":cluster_-30_-32_359952241_359952243_9" function="internal">
        <lane id=":cluster_-30_-32_359952241_359952243_9_0" index="0" speed="27.78" length="12.22" shape="203.15,86.93 204.32,90.04 206.36,92.08 209.27,93.05 213.04,92.94"/>
        <lane id=":cluster_-30_-32_359952241_359952243_9_1" index="1" speed="27.78" length="12.22" shape="203.15,86.93 204.60,91.46 206.81,94.51 209.79,96.10 213.54,96.21"/>
    </edge>
    <edge id=":cluster_-30_-32_359952241_359952243_11" function="internal">
        <lane id=":cluster_-30_-32_359952241_359952243_11_0" index="0" speed="27.78" length="38.04" shape="203.15,86.93 205.51,96.82 207.88,105.37 209.88,113.97 211.11,124.01"/>
        <lane id=":cluster_-30_-32_359952241_359952243_11_1" index="1" speed="27.78" length="38.04" shape="199.93,87.64 202.79,97.42 206.27,105.72 209.37,114.08 211.11,124.01"/>
        <lane id=":cluster_-30_-32_359952241_359952243_11_2" index="2" speed="27.78" length="38.04" shape="199.93,87.64 202.28,97.45 204.62,105.83 206.59,114.26 207.82,124.22"/>
    </edge>
    <edge id=":cluster_-30_-32_359952241_359952243_14" function="internal">
        <lane id=":cluster_-30_-32_359952241_359952243_14_0" index="0" speed="27.78" length="37.35" shape="199.93,87.64 201.81,102.14 200.81,112.77 196.93,119.54 190.18,122.43"/>
        <lane id=":cluster_-30_-32_359952241_359952243_14_1" index="1" speed="27.78" length="37.35" shape="199.93,87.64 201.54,100.72 200.38,110.33 196.47,116.48 189.79,119.16"/>
        <lane id=":cluster_-30_-32_359952241_359952243_14_2" index="2" speed="27.78" length="37.35" shape="199.93,87.64 201.27,99.29 199.96,107.89 196.01,113.41 189.41,115.88"/>
    </edge>
    <edge id=":cluster_-30_-32_359952241_359952243_17" function="internal">
        <lane id=":cluster_-30_-32_359952241_359952243_17_0" index="0" allow="bicycle" speed="5.56" length="36.09" shape="192.55,89.26 193.94,96.17 195.97,106.99 197.84,117.83 198.75,124.80"/>
    </edge>
    <edge id=":cluster_-30_-32_359952241_359952243_18" function="internal">
        <lane id=":cluster_-30_-32_359952241_359952243_18_0" index="0" allow="bicycle" speed="5.56" length="4.82" shape="192.55,89.26 192.01,90.65 191.29,91.23 190.40,91.00 189.33,89.97"/>
    </edge>
    <edge id=":cluster_-30_-32_359952241_359952243_19" function="internal">
        <lane id=":cluster_-30_-32_359952241_359952243_19_0" index="0" speed="27.78" length="26.32" shape="186.78,93.56 194.45,92.54 199.68,91.74 204.91,90.88 212.55,89.68"/>
        <lane id=":cluster_-30_-32_359952241_359952243_19_1" index="1" speed="27.78" length="26.32" shape="186.78,93.56 194.56,93.05 199.93,93.38 205.30,93.64 213.04,92.94"/>
        <lane id=":cluster_-30_-32_359952241_359952243_19_2" index="2" speed="27.78" length="26.32" shape="187.17,96.83 194.87,95.82 200.12,95.02 205.37,94.15 213.04,92.94"/>
        <lane id=":cluster_-30_-32_359952241_359952243_19_3" index="3" speed="27.78" length="26.32" shape="187.17,96.83 194.98,96.32 200.37,96.65 205.76,96.91 213.54,96.21"/>
        <lane id=":cluster_-30_-32_359952241_359952243_19_4" index="4" speed="27.78" length="26.32" shape="187.55,100.11 195.39,99.60 200.81,99.92 206.22,100.18 214.03,99.47"/>
        <lane id=":cluster_-30_-32_359952241_359952243_19_5" index="5" speed="27.78" length="26.32" shape="187.94,103.39 195.71,102.36 201.00,101.56 206.29,100.69 214.03,99.47"/>
    </edge>
    <edge id=":cluster_2469855636_359741297_0" function="internal">
        <lane id=":cluster_2469855636_359741297_0_0" index="0" allow="bicycle" speed="5.56" length="12.47" shape="283.79,574.61 282.43,571.55 281.26,568.91 280.10,566.28 278.75,563.21"/>
    </edge>
    <edge id=":cluster_2469855636_359741297_1" function="internal">
        <lane id=":cluster_2469855636_359741297_1_0" index="0" allow="bicycle" speed="5.56" length="4.82" shape="283.79,574.61 284.08,573.15 284.68,572.45 285.60,572.52 286.84,573.34"/>
    </edge>
    <edge id=":cluster_2469855636_359741297_2" function="internal">
        <lane id=":cluster_2469855636_359741297_2_0" index="0" speed="27.78" length="8.55" shape="291.89,557.43 293.17,559.76 294.65,561.31 296.33,562.08 298.23,562.05"/>
    </edge>
    <edge id=":cluster_2469855636_359741297_3" function="internal">
        <lane id=":cluster_2469855636_359741297_3_0" index="0" speed="27.78" length="12.68" shape="291.89,557.43 293.38,560.90 294.40,563.28 295.40,565.67 296.86,569.16"/>