<?xml version="1.0" encoding="UTF-8"?>

<!-- generated on 04/29/15 16:35:56 by SUMO netconvert Version dev-SVN-r16802
<?xml version="1.0" encoding="UTF-8"?>

<configuration xmlns:xsi="http://www.w3.org/2001/XMLSchema-instance" xsi:noNamespaceSchemaLocation="http://sumo-sim.org/xsd/netconvertConfiguration.xsd">

    <input>
        <sumo-net-file value="inter_palmas.net.xml"/>
    </input>

    <output>
        <plain-output-prefix value="inter_palmas"/>
    </output>

    <processing>
        <no-turnarounds value="true"/>
        <offset.disable-normalization value="true"/>
    </processing>

</configuration>
-->

<connections version="0.13" xmlns:xsi="http://www.w3.org/2001/XMLSchema-instance" xsi:noNamespaceSchemaLocation="http://sumo-sim.org/xsd/connections_file.xsd">
    <connection from="-609#0" to="-609#1" fromLane="0" toLane="0"/>
    <connection from="-609#0" to="-609#1" fromLane="1" toLane="1"/>

    <connection from="-609#1" to="-609#2" fromLane="0" toLane="0"/>
    <connection from="-609#1" to="-609#2" fromLane="1" toLane="1"/>

    <connection from="30659170" to="33463249#3" fromLane="0" toLane="0"/>

    <connection from="30659375" to="-609#2" fromLane="0" toLane="0"/>

    <connection from="33463249#0" to="30659403" fromLane="0" toLane="0"/>
    <connection from="33463249#0" to="30659403" fromLane="0" toLane="1"/>
    <connection from="33463249#0" to="33463249#1" fromLane="0" toLane="0"/>
    <connection from="33463249#0" to="33463249#1" fromLane="1" toLane="1"/>

    <connection from="33463249#1" to="33463249#2" fromLane="0" toLane="0"/>
    <connection from="33463249#1" to="33463249#2" fromLane="1" toLane="1"/>

    <connection from="33463249#2" to="33463249#3" fromLane="0" toLane="0"/>
    <connection from="33463249#2" to="33463249#3" fromLane="1" toLane="1"/>

</connections>
