<?xml version="1.0" encoding="UTF-8"?>

<!-- generated on 03/26/15 09:13:08 by SUMO netconvert Version 0.22.0
<?xml version="1.0" encoding="UTF-8"?>

<configuration xmlns:xsi="http://www.w3.org/2001/XMLSchema-instance" xsi:noNamespaceSchemaLocation="http://sumo.dlr.de/xsd/netconvertConfiguration.xsd">

    <input>
        <osm-files value="C:/Users/AndresFelipe/Documents/SUMO/inter_palmas/inter_palmas.osm"/>
    </input>

    <output>
        <output-file value="C:/Users/AndresFelipe/Documents/SUMO/inter_palmas/inter_palmas.net.xml"/>
    </output>

    <projection>
        <proj.utm value="true"/>
    </projection>

    <tls_building>
        <tls.guess value="true"/>
    </tls_building>

    <processing>
        <ignore-errors value="true"/>
    </processing>

</configuration>
-->

<net version="0.13" xmlns:xsi="http://www.w3.org/2001/XMLSchema-instance" xsi:noNamespaceSchemaLocation="http://sumo.dlr.de/xsd/net_file.xsd">

    <location netOffset="-436954.42,-689250.27" convBoundary="0.00,0.00,197.87,267.77" origBoundary="-75.569917,6.235311,-75.568126,6.237731" projParameter="+proj=utm +zone=18 +ellps=WGS84 +datum=WGS84 +units=m +no_defs"/>

    <edge id=":3218348564_0" function="internal">
        <lane id=":3218348564_0_0" index="0" speed="16.67" length="0.10" shape="86.55,165.09 86.48,165.13"/>
        <lane id=":3218348564_0_1" index="1" speed="16.67" length="0.10" shape="84.96,162.20 85.03,162.16"/>
    </edge>
    <edge id=":339060251_0" function="internal">
        <lane id=":339060251_0_0" index="0" speed="22.22" length="10.81" shape="158.90,64.52 161.25,62.52 163.07,61.13 164.59,59.46 166.07,56.64"/>
    </edge>
    <edge id=":339060251_1" function="internal">
        <lane id=":339060251_1_0" index="0" speed="16.67" length="10.77" shape="162.00,66.63 163.21,63.67 164.02,61.63 164.84,59.60 166.07,56.64"/>
        <lane id=":339060251_1_1" index="1" speed="16.67" length="10.77" shape="165.06,67.88 166.26,64.92 167.07,62.89 167.89,60.87 169.11,57.91"/>
    </edge>
    <edge id=":339061350_0" function="internal">
        <lane id=":339061350_0_0" index="0" speed="16.67" length="0.22" shape="80.28,151.58 80.57,151.41"/>
        <lane id=":339061350_0_1" index="1" speed="16.67" length="0.22" shape="82.02,154.39 82.11,154.33"/>
    </edge>
    <edge id=":339061351_0" function="internal">
        <lane id=":339061351_0_0" index="0" speed="19.44" length="9.33" shape="54.09,167.58 55.03,166.65 55.75,165.02 56.26,162.68 56.55,159.64"/>
        <lane id=":339061351_0_1" index="1" speed="19.44" length="9.33" shape="54.09,167.58 56.51,165.96 58.28,164.13 59.39,162.08 59.84,159.82"/>
    </edge>
    <edge id=":339061351_2" function="internal">
        <lane id=":339061351_2_0" index="0" speed="16.67" length="11.02" shape="54.09,167.58 56.92,166.00 58.84,164.87 60.72,163.69 63.48,161.97"/>
        <lane id=":339061351_2_1" index="1" speed="16.67" length="11.02" shape="55.68,170.47 58.56,168.86 60.50,167.72 62.42,166.52 65.21,164.78"/>
    </edge>
    <edge id=":339061699_0" function="internal">
        <lane id=":339061699_0_0" index="0" speed="22.22" length="6.11" shape="52.18,187.02 50.43,186.16 48.89,185.75 47.55,185.78 46.41,186.25"/>
    </edge>
    <edge id=":339061699_1" function="internal">
        <lane id=":339061699_1_0" index="0" speed="16.67" length="6.97" shape="52.33,182.81 46.41,186.25"/>
        <lane id=":339061699_1_1" index="1" speed="16.67" length="6.97" shape="50.72,179.93 44.59,183.50"/>
    </edge>

    <edge id="-609#0" from="339061690" to="3218348564" priority="11" type="highway.trunk" spreadType="center" shape="197.87,0.00 185.57,37.73 175.15,68.87 163.79,94.36 158.11,107.56 142.93,129.28 120.16,145.33 106.88,151.96 85.76,163.64">
        <lane id="-609#0_0" index="0" speed="16.67" length="208.14" shape="199.43,0.51 187.14,38.24 176.72,69.40 165.30,95.03 159.56,108.37 144.12,130.46 121.11,146.68 107.62,153.44 86.55,165.09"/>
        <lane id="-609#0_1" index="1" speed="16.67" length="208.14" shape="196.30,-0.51 184.00,37.22 173.59,68.35 162.29,93.69 156.66,106.76 141.75,128.10 119.21,143.99 106.15,150.48 84.96,162.20"/>
    </edge>
    <edge id="-609#1" from="3218348564" to="339061699" priority="11" type="highway.trunk" spreadType="center" shape="85.76,163.64 67.03,172.75 46.90,183.94">
        <lane id="-609#1_0" index="0" speed="16.67" length="38.56" shape="86.48,165.13 67.75,174.24 52.33,182.81"/>
        <lane id="-609#1_1" index="1" speed="16.67" length="38.56" shape="85.03,162.16 66.30,171.27 50.72,179.93"/>
    </edge>
    <edge id="-609#2" from="339061699" to="339059944" priority="11" type="highway.trunk" spreadType="center" shape="46.90,183.94 35.21,191.70 22.47,203.70 10.10,218.08">
        <lane id="-609#2_0" index="0" speed="16.67" length="48.82" shape="46.41,186.25 36.12,193.08 23.60,204.90 11.35,219.16"/>
        <lane id="-609#2_1" index="1" speed="16.67" length="48.82" shape="44.59,183.50 34.30,190.33 21.33,202.50 8.85,217.01"/>
    </edge>
    <edge id="30659170" from="339060265" to="339060251" priority="7" type="highway.secondary" spreadType="center" shape="49.23,253.90 43.42,239.34 42.20,225.93 44.78,215.99 54.92,206.89 83.03,197.36 94.59,187.92 97.25,181.73 96.33,151.96 100.18,138.40 105.80,132.79 128.63,109.19 141.37,90.90 152.92,70.25 168.33,55.49">
        <lane id="30659170_0" index="0" speed="27.78" length="243.27" shape="49.23,253.90 43.42,239.34 42.20,225.93 44.78,215.99 54.92,206.89 83.03,197.36 94.59,187.92 97.25,181.73 96.33,151.96 100.18,138.40 105.80,132.79 128.63,109.19 141.37,90.90 152.92,70.25 158.90,64.52"/>
    </edge>
    <edge id="30659375" from="339062566" to="339061699" priority="7" type="highway.secondary" spreadType="center" shape="54.78,267.77 46.59,259.65 35.43,240.86 31.88,232.38 32.04,221.86 41.73,207.61 48.99,199.20 53.04,193.99 52.41,187.15 46.90,183.94">
        <lane id="30659375_0" index="0" speed="27.78" length="95.18" shape="54.78,267.77 46.59,259.65 35.43,240.86 31.88,232.38 32.04,221.86 41.73,207.61 48.99,199.20 53.04,193.99 52.41,187.15 52.18,187.02"/>
    </edge>
    <edge id="30659403" from="339061351" to="339062833" priority="6" type="highway.tertiary" spreadType="center" shape="57.78,167.43 58.46,154.84 59.38,130.31 60.29,96.35 60.28,83.15">
        <lane id="30659403_0" index="0" speed="22.22" length="76.62" shape="56.55,159.64 56.81,154.75 57.73,130.25 58.65,96.30 58.63,83.15"/>
        <lane id="30659403_1" index="1" speed="22.22" length="76.62" shape="59.84,159.82 60.10,154.93 61.03,130.37 61.94,96.39 61.93,83.15"/>
    </edge>
    <edge id="33463249#0" from="339059941" to="339061351" priority="11" type="highway.trunk" spreadType="center" shape="0.00,185.42 13.86,185.07 29.24,181.03 45.42,174.23 57.78,167.43">
        <lane id="33463249#0_0" index="0" speed="16.67" length="58.12" shape="-0.04,183.77 13.63,183.42 28.83,179.43 44.78,172.71 54.09,167.58"/>
        <lane id="33463249#0_1" index="1" speed="16.67" length="58.12" shape="0.04,187.07 14.09,186.71 29.66,182.62 46.06,175.76 55.68,170.47"/>
    </edge>
    <edge id="33463249#1" from="339061351" to="339061350" priority="11" type="highway.trunk" spreadType="center">
        <lane id="33463249#1_0" index="0" speed="16.67" length="19.76" shape="63.48,161.97 80.28,151.58"/>
        <lane id="33463249#1_1" index="1" speed="16.67" length="19.76" shape="65.21,164.78 82.02,154.39"/>
    </edge>
    <edge id="33463249#2" from="339061350" to="339060251" priority="11" type="highway.trunk" spreadType="center" shape="81.24,152.93 97.37,144.42 117.31,134.97 126.79,128.35 136.28,118.91 143.86,108.53 154.29,89.65 159.16,77.96 168.33,55.49">
        <lane id="33463249#2_0" index="0" speed="16.67" length="123.78" shape="80.57,151.41 96.60,142.96 116.60,133.48 125.85,126.99 135.11,117.74 142.53,107.55 152.84,88.85 157.64,77.32 162.00,66.63"/>
        <lane id="33463249#2_1" index="1" speed="16.67" length="123.78" shape="82.11,154.33 98.14,145.88 118.02,136.46 127.74,129.70 137.44,120.08 145.20,109.50 155.73,90.44 160.69,78.59 165.06,67.88"/>
    </edge>
    <edge id="33463249#3" from="339060251" to="339061412" priority="11" type="highway.trunk" spreadType="center" shape="168.33,55.49 171.85,47.04 186.47,0.01">
        <lane id="33463249#3_0" index="0" speed="16.67" length="60.34" shape="166.07,56.64 170.33,46.41 184.90,-0.48"/>
        <lane id="33463249#3_1" index="1" speed="16.67" length="60.34" shape="169.11,57.91 173.38,47.68 188.05,0.50"/>
    </edge>

    <tlLogic id="3218348564" type="static" programID="0" offset="0">
        <phase duration="31" state="GG"/>
        <phase duration="5" state="yy"/>
    </tlLogic>
    <tlLogic id="339061350" type="static" programID="0" offset="0">
        <phase duration="31" state="GG"/>
        <phase duration="5" state="yy"/>
    </tlLogic>

    <junction id="3218348564" type="traffic_light" x="85.76" y="163.64" incLanes="-609#0_0 -609#0_1" intLanes=":3218348564_0_0 :3218348564_0_1" shape="87.40,166.45 84.26,160.76 87.10,166.60">
        <request index="0" response="00" foes="00" cont="0"/>
        <request index="1" response="00" foes="00" cont="0"/>
    </junction>
    <junction id="339059941" type="unregulated" x="0.00" y="185.42" incLanes="" intLanes="" shape="0.08,188.66 -0.08,182.17"/>
    <junction id="339059944" type="unregulated" x="10.10" y="218.08" incLanes="-609#2_0 -609#2_1" intLanes="" shape="12.57,220.20 7.64,215.97"/>
    <junction id="339060251" type="priority" x="168.33" y="55.49" incLanes="30659170_0 33463249#2_0 33463249#2_1" intLanes=":339060251_0_0 :339060251_1_0 :339060251_1_1" shape="170.59,58.53 164.59,56.03 157.79,63.37 160.01,65.68 160.52,66.03 166.54,68.49">
        <request index="0" response="110" foes="110" cont="0"/>
        <request index="1" response="000" foes="001" cont="0"/>
        <request index="2" response="000" foes="001" cont="0"/>
    </junction>
    <junction id="339060265" type="unregulated" x="49.23" y="253.90" incLanes="" intLanes="" shape="50.71,253.31 47.74,254.49"/>
    <junction id="339061350" type="traffic_light" x="81.24" y="152.93" incLanes="33463249#1_0 33463249#1_1" intLanes=":339061350_0_0 :339061350_0_1" shape="82.86,155.75 79.82,150.00 79.44,150.22 82.86,155.75">
        <request index="0" response="00" foes="00" cont="0"/>
        <request index="1" response="00" foes="00" cont="0"/>
    </junction>
    <junction id="339061351" type="priority" x="57.78" y="167.43" incLanes="33463249#0_0 33463249#0_1" intLanes=":339061351_0_0 :339061351_0_1 :339061351_2_0 :339061351_2_1" shape="66.05,166.14 62.64,160.61 61.44,159.90 54.95,159.56 53.32,166.18 56.45,171.87">
        <request index="0" response="0000" foes="0000" cont="0"/>
        <request index="1" response="0000" foes="0000" cont="0"/>
        <request index="2" response="0000" foes="0000" cont="0"/>
        <request index="3" response="0000" foes="0000" cont="0"/>
    </junction>
    <junction id="339061412" type="unregulated" x="186.47" y="0.01" incLanes="33463249#3_0 33463249#3_1" intLanes="" shape="183.37,-0.95 189.57,0.98"/>
    <junction id="339061690" type="unregulated" x="197.87" y="0.00" incLanes="" intLanes="" shape="194.78,-1.01 200.96,1.01"/>
    <junction id="339061699" type="priority" x="46.90" y="183.94" incLanes="30659375_0 -609#1_0 -609#1_1" intLanes=":339061699_0_0 :339061699_1_0 :339061699_1_1" shape="50.95,188.79 53.09,185.70 53.10,184.21 49.95,178.53 43.70,182.16 47.30,187.58">
        <request index="0" response="110" foes="110" cont="0"/>
        <request index="1" response="000" foes="001" cont="0"/>
        <request index="2" response="000" foes="001" cont="0"/>
    </junction>
    <junction id="339062566" type="unregulated" x="54.78" y="267.77" incLanes="" intLanes="" shape="55.91,266.63 53.66,268.91"/>
    <junction id="339062833" type="unregulated" x="60.28" y="83.15" incLanes="30659403_0 30659403_1" intLanes="" shape="57.03,83.15 63.53,83.14"/>

    <connection from="-609#0" to="-609#1" fromLane="0" toLane="0" via=":3218348564_0_0" tl="3218348564" linkIndex="0" dir="s" state="o"/>
    <connection from="-609#0" to="-609#1" fromLane="1" toLane="1" via=":3218348564_0_1" tl="3218348564" linkIndex="1" dir="s" state="o"/>
    <connection from="-609#1" to="-609#2" fromLane="0" toLane="0" via=":339061699_1_0" dir="s" state="M"/>
    <connection from="-609#1" to="-609#2" fromLane="1" toLane="1" via=":339061699_1_1" dir="s" state="M"/>
    <connection from="30659170" to="33463249#3" fromLane="0" toLane="0" via=":339060251_0_0" dir="s" state="m"/>
    <connection from="30659375" to="-609#2" fromLane="0" toLane="0" via=":339061699_0_0" dir="r" state="m"/>
    <connection from="33463249#0" to="30659403" fromLane="0" toLane="0" via=":339061351_0_0" dir="r" state="M"/>
    <connection from="33463249#0" to="30659403" fromLane="0" toLane="1" via=":339061351_0_1" dir="r" state="M"/>
    <connection from="33463249#0" to="33463249#1" fromLane="0" toLane="0" via=":339061351_2_0" dir="s" state="M"/>
    <connection from="33463249#0" to="33463249#1" fromLane="1" toLane="1" via=":339061351_2_1" dir="s" state="M"/>
    <connection from="33463249#1" to="33463249#2" fromLane="0" toLane="0" via=":339061350_0_0" tl="339061350" linkIndex="0" dir="s" state="o"/>
    <connection from="33463249#1" to="33463249#2" fromLane="1" toLane="1" via=":339061350_0_1" tl="339061350" linkIndex="1" dir="s" state="o"/>
    <connection from="33463249#2" to="33463249#3" fromLane="0" toLane="0" via=":339060251_1_0" dir="s" state="M"/>
    <connection from="33463249#2" to="33463249#3" fromLane="1" toLane="1" via=":339060251_1_1" dir="s" state="M"/>

    <connection from=":3218348564_0" to="-609#1" fromLane="0" toLane="0" dir="s" state="M"/>
    <connection from=":3218348564_0" to="-609#1" fromLane="1" toLane="1" dir="s" state="M"/>
    <connection from=":339060251_0" to="33463249#3" fromLane="0" toLane="0" dir="s" state="M"/>
    <connection from=":339060251_1" to="33463249#3" fromLane="0" toLane="0" dir="s" state="M"/>
    <connection from=":339060251_1" to="33463249#3" fromLane="1" toLane="1" dir="s" state="M"/>
    <connection from=":339061350_0" to="33463249#2" fromLane="0" toLane="0" dir="s" state="M"/>
    <connection from=":339061350_0" to="33463249#2" fromLane="1" toLane="1" dir="s" state="M"/>
    <connection from=":339061351_0" to="30659403" fromLane="0" toLane="0" dir="s" state="M"/>
    <connection from=":339061351_0" to="30659403" fromLane="1" toLane="1" dir="s" state="M"/>
    <connection from=":339061351_2" to="33463249#1" fromLane="0" toLane="0" dir="s" state="M"/>
    <connection from=":339061351_2" to="33463249#1" fromLane="1" toLane="1" dir="s" state="M"/>
    <connection from=":339061699_0" to="-609#2" fromLane="0" toLane="0" dir="s" state="M"/>
    <connection from=":339061699_1" to="-609#2" fromLane="0" toLane="0" dir="s" state="M"/>
    <connection from=":339061699_1" to="-609#2" fromLane="1" toLane="1" dir="s" state="M"/>

</net>
