<?xml version="1.0" encoding="UTF-8"?>

<!-- generated on 04/29/15 16:35:56 by SUMO netconvert Version dev-SVN-r16802
<?xml version="1.0" encoding="UTF-8"?>

<configuration xmlns:xsi="http://www.w3.org/2001/XMLSchema-instance" xsi:noNamespaceSchemaLocation="http://sumo-sim.org/xsd/netconvertConfiguration.xsd">

    <input>
        <sumo-net-file value="inter_palmas.net.xml"/>
    </input>

    <output>
        <plain-output-prefix value="inter_palmas"/>
    </output>

    <processing>
        <no-turnarounds value="true"/>
        <offset.disable-normalization value="true"/>
    </processing>

</configuration>
-->

<edges version="0.13" xmlns:xsi="http://www.w3.org/2001/XMLSchema-instance" xsi:noNamespaceSchemaLocation="http://sumo-sim.org/xsd/edges_file.xsd">
    <edge id="-609#0" from="339061690" to="3218348564" priority="11" type="highway.trunk" numLanes="2" speed="16.67" shape="197.87,0.00 185.57,37.73 175.15,68.87 163.79,94.36 158.11,107.56 142.93,129.28 120.16,145.33 106.88,151.96 85.76,163.64" spreadType="center"/>
    <edge id="-609#1" from="3218348564" to="339061699" priority="11" type="highway.trunk" numLanes="2" speed="16.67" shape="85.76,163.64 67.03,172.75 46.90,183.94" spreadType="center"/>
    <edge id="-609#2" from="339061699" to="339059944" priority="11" type="highway.trunk" numLanes="2" speed="16.67" shape="46.90,183.94 35.21,191.70 22.47,203.70 10.10,218.08" spreadType="center"/>
    <edge id="30659170" from="339060265" to="339060251" priority="7" type="highway.secondary" numLanes="1" speed="27.78" shape="49.23,253.90 43.42,239.34 42.20,225.93 44.78,215.99 54.92,206.89 83.03,197.36 94.59,187.92 97.25,181.73 96.33,151.96 100.18,138.40 105.80,132.79 128.63,109.19 141.37,90.90 152.92,70.25 168.33,55.49" spreadType="center"/>
    <edge id="30659375" from="339062566" to="339061699" priority="7" type="highway.secondary" numLanes="1" speed="27.78" shape="54.78,267.77 46.59,259.65 35.43,240.86 31.88,232.38 32.04,221.86 41.73,207.61 48.99,199.20 53.04,193.99 52.41,187.15 46.90,183.94" spreadType="center"/>
    <edge id="30659403" from="339061351" to="339062833" priority="6" type="highway.tertiary" numLanes="2" speed="22.22" shape="57.78,167.43 58.46,154.84 59.38,130.31 60.29,96.35 60.28,83.15" spreadType="center"/>
    <edge id="33463249#0" from="339059941" to="339061351" priority="11" type="highway.trunk" numLanes="2" speed="16.67" shape="0.00,185.42 13.86,185.07 29.24,181.03 45.42,174.23 57.78,167.43" spreadType="center"/>
    <edge id="33463249#1" from="339061351" to="339061350" priority="11" type="highway.trunk" numLanes="2" speed="16.67" spreadType="center"/>
    <edge id="33463249#2" from="339061350" to="339060251" priority="11" type="highway.trunk" numLanes="2" speed="16.67" shape="81.24,152.93 97.37,144.42 117.31,134.97 126.79,128.35 136.28,118.91 143.86,108.53 154.29,89.65 159.16,77.96 168.33,55.49" spreadType="center"/>
    <edge id="33463249#3" from="339060251" to="339061412" priority="11" type="highway.trunk" numLanes="2" speed="16.67" shape="168.33,55.49 171.85,47.04 186.47,0.01" spreadType="center"/>
</edges>
