<?xml version="1.0" encoding="UTF-8"?>

<!-- generated on 03/31/15 16:43:18 by SUMO jtrrouter Version 0.22.0
<?xml version="1.0" encoding="UTF-8"?>

<configuration xmlns:xsi="http://www.w3.org/2001/XMLSchema-instance" xsi:noNamespaceSchemaLocation="http://sumo.dlr.de/xsd/jtrrouterConfiguration.xsd">

    <input>
        <net-file value="interseccion_aislada.net.xml"/>
        <flow-files value="generateDemandDemo.trips.xml"/>
        <turn-ratio-files value="generateDemandDemo.turns.xml"/>
    </input>

    <output>
        <output-file value="generateDemandDemo.rou.xml"/>
    </output>

    <processing>
        <ignore-errors value="true"/>
    </processing>

    <defaults>
        <departlane value="free"/>
    </defaults>

</configuration>
-->

<routes xmlns:xsi="http://www.w3.org/2001/XMLSchema-instance" xsi:noNamespaceSchemaLocation="http://sumo.dlr.de/xsd/routes_file.xsd">
    <vehicle id="O1a1_0.0" depart="0.00" departLane="0">
        <route edges="O1a aO4"/>
    </vehicle>
    <vehicle id="O1a1_1.0" depart="0.00" departLane="1">
        <route edges="O1a aO4"/>
    </vehicle>
    <vehicle id="O1a1_2.0" depart="0.00" departLane="2">
        <route edges="O1a aO2"/>
    </vehicle>
    <vehicle id="O1a1_0.1" depart="33.49" departLane="0">
        <route edges="O1a aO4"/>
    </vehicle>
    <vehicle id="O1a1_0.2" depart="66.98" departLane="0">
        <route edges="O1a aO2"/>
    </vehicle>
    <vehicle id="O1a1_0.3" depart="100.46" departLane="0">
        <route edges="O1a aO3"/>
    </vehicle>
    <vehicle id="O1a1_2.1" depart="120.00" departLane="2">
        <route edges="O1a aO3"/>
    </vehicle>
    <vehicle id="O1a1_0.4" depart="133.95" departLane="0">
        <route edges="O1a aO3"/>
    </vehicle>
    <vehicle id="O1a1_0.5" depart="167.44" departLane="0">
        <route edges="O1a aO2"/>
    </vehicle>
    <vehicle id="O1a1_0.6" depart="200.93" departLane="0">
        <route edges="O1a aO4"/>
    </vehicle>
    <vehicle id="O1a1_0.7" depart="234.42" departLane="0">
        <route edges="O1a aO3"/>
    </vehicle>
    <vehicle id="O1a1_2.2" depart="240.00" departLane="2">
        <route edges="O1a aO2"/>
    </vehicle>
    <vehicle id="O1a1_0.8" depart="267.90" departLane="0">
        <route edges="O1a aO3"/>
    </vehicle>
    <vehicle id="O1a1_0.9" depart="301.39" departLane="0">
        <route edges="O1a aO3"/>
    </vehicle>
    <vehicle id="O1a1_0.10" depart="334.88" departLane="0">
        <route edges="O1a aO4"/>
    </vehicle>
    <vehicle id="O1a1_2.3" depart="360.00" departLane="2">
        <route edges="O1a aO2"/>
    </vehicle>
    <vehicle id="O1a1_0.11" depart="368.37" departLane="0">
        <route edges="O1a aO2"/>
    </vehicle>
    <vehicle id="O1a1_0.12" depart="401.86" departLane="0">
        <route edges="O1a aO4"/>
    </vehicle>
    <vehicle id="O1a1_0.13" depart="435.34" departLane="0">
        <route edges="O1a aO2"/>
    </vehicle>
    <vehicle id="O1a1_0.14" depart="468.83" departLane="0">
        <route edges="O1a aO4"/>
    </vehicle>
    <vehicle id="O1a1_2.4" depart="480.00" departLane="2">
        <route edges="O1a aO3"/>
    </vehicle>
    <vehicle id="O1a1_0.15" depart="502.32" departLane="0">
        <route edges="O1a aO2"/>
    </vehicle>
    <vehicle id="O1a1_0.16" depart="535.81" departLane="0">
        <route edges="O1a aO3"/>
    </vehicle>
    <vehicle id="O1a1_0.17" depart="569.30" departLane="0">
        <route edges="O1a aO2"/>
    </vehicle>
    <vehicle id="O1a1_2.5" depart="600.00" departLane="2">
        <route edges="O1a aO2"/>
    </vehicle>
    <vehicle id="O1a1_0.18" depart="602.78" departLane="0">
        <route edges="O1a aO4"/>
    </vehicle>
    <vehicle id="O1a1_0.19" depart="636.27" departLane="0">
        <route edges="O1a aO4"/>
    </vehicle>
    <vehicle id="O1a1_0.20" depart="669.76" departLane="0">
        <route edges="O1a aO4"/>
    </vehicle>
    <vehicle id="O1a1_0.21" depart="703.25" departLane="0">
        <route edges="O1a aO3"/>
    </vehicle>
    <vehicle id="O1a1_1.1" depart="720.00" departLane="1">
        <route edges="O1a aO2"/>
    </vehicle>
    <vehicle id="O1a1_2.6" depart="720.00" departLane="2">
        <route edges="O1a aO4"/>
    </vehicle>
    <vehicle id="O1a1_0.22" depart="736.74" departLane="0">
        <route edges="O1a aO3"/>
    </vehicle>
    <vehicle id="O1a1_0.23" depart="770.22" departLane="0">
        <route edges="O1a aO2"/>
    </vehicle>
    <vehicle id="O1a1_0.24" depart="803.71" departLane="0">
        <route edges="O1a aO2"/>
    </vehicle>
    <vehicle id="O1a1_0.25" depart="837.20" departLane="0">
        <route edges="O1a aO4"/>
    </vehicle>
    <vehicle id="O1a1_2.7" depart="840.00" departLane="2">
        <route edges="O1a aO2"/>
    </vehicle>
    <vehicle id="O1a1_0.26" depart="870.69" departLane="0">
        <route edges="O1a aO2"/>
    </vehicle>
    <vehicle id="O1a1_0.27" depart="904.18" departLane="0">
        <route edges="O1a aO4"/>
    </vehicle>
    <vehicle id="O1a1_0.28" depart="937.66" departLane="0">
        <route edges="O1a aO2"/>
    </vehicle>
    <vehicle id="O1a1_2.8" depart="960.00" departLane="2">
        <route edges="O1a aO3"/>
    </vehicle>
    <vehicle id="O1a1_0.29" depart="971.15" departLane="0">
        <route edges="O1a aO2"/>
    </vehicle>
    <vehicle id="O1a1_0.30" depart="1004.64" departLane="0">
        <route edges="O1a aO4"/>
    </vehicle>
    <vehicle id="O1a1_0.31" depart="1038.13" departLane="0">
        <route edges="O1a aO2"/>
    </vehicle>
    <vehicle id="O1a1_0.32" depart="1071.62" departLane="0">
        <route edges="O1a aO2"/>
    </vehicle>
    <vehicle id="O1a1_2.9" depart="1080.00" departLane="2">
        <route edges="O1a aO4"/>
    </vehicle>
    <vehicle id="O1a1_0.33" depart="1105.10" departLane="0">
        <route edges="O1a aO2"/>
    </vehicle>
    <vehicle id="O1a1_0.34" depart="1138.59" departLane="0">
        <route edges="O1a aO3"/>
    </vehicle>
    <vehicle id="O1a1_0.35" depart="1172.08" departLane="0">
        <route edges="O1a aO2"/>
    </vehicle>
    <vehicle id="O1a1_2.10" depart="1200.00" departLane="2">
        <route edges="O1a aO4"/>
    </vehicle>
    <vehicle id="O1a1_0.36" depart="1205.57" departLane="0">
        <route edges="O1a aO2"/>
    </vehicle>
    <vehicle id="O1a1_0.37" depart="1239.06" departLane="0">
        <route edges="O1a aO4"/>
    </vehicle>
    <vehicle id="O1a1_0.38" depart="1272.54" departLane="0">
        <route edges="O1a aO4"/>
    </vehicle>
    <vehicle id="O1a1_0.39" depart="1306.03" departLane="0">
        <route edges="O1a aO3"/>
    </vehicle>
    <vehicle id="O1a1_2.11" depart="1320.00" departLane="2">
        <route edges="O1a aO2"/>
    </vehicle>
    <vehicle id="O1a1_0.40" depart="1339.52" departLane="0">
        <route edges="O1a aO4"/>
    </vehicle>
    <vehicle id="O1a1_0.41" depart="1373.01" departLane="0">
        <route edges="O1a aO4"/>
    </vehicle>
    <vehicle id="O1a1_0.42" depart="1406.50" departLane="0">
        <route edges="O1a aO3"/>
    </vehicle>
    <vehicle id="O1a2_0.0" depart="1440.00" departLane="0">
        <route edges="O1a aO3"/>
    </vehicle>
    <vehicle id="O1a2_1.0" depart="1440.00" departLane="1">
        <route edges="O1a aO2"/>
    </vehicle>
    <vehicle id="O1a2_2.0" depart="1440.00" departLane="2">
        <route edges="O1a aO2"/>
    </vehicle>
    <vehicle id="O1a2_2.1" depart="1497.60" departLane="2">
        <route edges="O1a aO3"/>
    </vehicle>
    <vehicle id="O1a2_1.1" depart="1550.77" departLane="1">
        <route edges="O1a aO4"/>
    </vehicle>
    <vehicle id="O1a2_2.2" depart="1555.20" departLane="2">
        <route edges="O1a aO2"/>
    </vehicle>
    <vehicle id="O1a2_2.3" depart="1612.80" departLane="2">
        <route edges="O1a aO4"/>
    </vehicle>
    <vehicle id="O1a2_1.2" depart="1661.54" departLane="1">
        <route edges="O1a aO2"/>
    </vehicle>
    <vehicle id="O1a2_2.4" depart="1670.40" departLane="2">
        <route edges="O1a aO2"/>
    </vehicle>
    <vehicle id="O1a2_0.1" depart="1680.00" departLane="0">
        <route edges="O1a aO2"/>
    </vehicle>
    <vehicle id="O1a2_2.5" depart="1728.00" departLane="2">
        <route edges="O1a aO2"/>
    </vehicle>
    <vehicle id="O1a2_1.3" depart="1772.31" departLane="1">
        <route edges="O1a aO3"/>
    </vehicle>
    <vehicle id="O1a2_2.6" depart="1785.60" departLane="2">
        <route edges="O1a aO4"/>
    </vehicle>
    <vehicle id="O1a2_2.7" depart="1843.20" departLane="2">
        <route edges="O1a aO3"/>
    </vehicle>
    <vehicle id="O1a2_1.4" depart="1883.08" departLane="1">
        <route edges="O1a aO3"/>
    </vehicle>
    <vehicle id="O1a2_2.8" depart="1900.80" departLane="2">
        <route edges="O1a aO2"/>
    </vehicle>
    <vehicle id="O1a2_0.2" depart="1920.00" departLane="0">
        <route edges="O1a aO2"/>
    </vehicle>
    <vehicle id="O1a2_2.9" depart="1958.40" departLane="2">
        <route edges="O1a aO2"/>
    </vehicle>
    <vehicle id="O1a2_1.5" depart="1993.85" departLane="1">
        <route edges="O1a aO2"/>
    </vehicle>
    <vehicle id="O1a2_2.10" depart="2016.00" departLane="2">
        <route edges="O1a aO4"/>
    </vehicle>
    <vehicle id="O1a2_2.11" depart="2073.60" departLane="2">
        <route edges="O1a aO3"/>
    </vehicle>
    <vehicle id="O1a2_1.6" depart="2104.61" departLane="1">
        <route edges="O1a aO2"/>
    </vehicle>
    <vehicle id="O1a2_2.12" depart="2131.20" departLane="2">
        <route edges="O1a aO2"/>
    </vehicle>
    <vehicle id="O1a2_0.3" depart="2160.00" departLane="0">
        <route edges="O1a aO2"/>
    </vehicle>
    <vehicle id="O1a2_2.13" depart="2188.80" departLane="2">
        <route edges="O1a aO2"/>
    </vehicle>
    <vehicle id="O1a2_1.7" depart="2215.38" departLane="1">
        <route edges="O1a aO4"/>
    </vehicle>
    <vehicle id="O1a2_2.14" depart="2246.40" departLane="2">
        <route edges="O1a aO3"/>
    </vehicle>
    <vehicle id="O1a2_2.15" depart="2304.00" departLane="2">
        <route edges="O1a aO3"/>
    </vehicle>
    <vehicle id="O1a2_1.8" depart="2326.15" departLane="1">
        <route edges="O1a aO3"/>
    </vehicle>
    <vehicle id="O1a2_2.16" depart="2361.60" departLane="2">
        <route edges="O1a aO3"/>
    </vehicle>
    <vehicle id="O1a2_0.4" depart="2400.00" departLane="0">
        <route edges="O1a aO4"/>
    </vehicle>
    <vehicle id="O1a2_2.17" depart="2419.20" departLane="2">
        <route edges="O1a aO3"/>
    </vehicle>
    <vehicle id="O1a2_1.9" depart="2436.92" departLane="1">
        <route edges="O1a aO3"/>
    </vehicle>
    <vehicle id="O1a2_2.18" depart="2476.80" departLane="2">
        <route edges="O1a aO4"/>
    </vehicle>
    <vehicle id="O1a2_2.19" depart="2534.40" departLane="2">
        <route edges="O1a aO2"/>
    </vehicle>
    <vehicle id="O1a2_1.10" depart="2547.69" departLane="1">
        <route edges="O1a aO3"/>
    </vehicle>
    <vehicle id="O1a2_2.20" depart="2592.00" departLane="2">
        <route edges="O1a aO2"/>
    </vehicle>
    <vehicle id="O1a2_0.5" depart="2640.00" departLane="0">
        <route edges="O1a aO2"/>
    </vehicle>
    <vehicle id="O1a2_2.21" depart="2649.60" departLane="2">
        <route edges="O1a aO4"/>
    </vehicle>
    <vehicle id="O1a2_1.11" depart="2658.46" departLane="1">
        <route edges="O1a aO4"/>
    </vehicle>
    <vehicle id="O1a2_2.22" depart="2707.20" departLane="2">
        <route edges="O1a aO3"/>
    </vehicle>
    <vehicle id="O1a2_2.23" depart="2764.80" departLane="2">
        <route edges="O1a aO3"/>
    </vehicle>
    <vehicle id="O1a2_1.12" depart="2769.23" departLane="1">
        <route edges="O1a aO3"/>
    </vehicle>
    <vehicle id="O1a2_2.24" depart="2822.40" departLane="2">
        <route edges="O1a aO4"/>
    </vehicle>
    <vehicle id="O1a3_0.0" depart="2880.00" departLane="0">
        <route edges="O1a aO3"/>
    </vehicle>
    <vehicle id="O1a3_1.0" depart="2880.00" departLane="1">
        <route edges="O1a aO2"/>
    </vehicle>
    <vehicle id="O1a3_2.0" depart="2880.00" departLane="2">
        <route edges="O1a aO3"/>
    </vehicle>
    <vehicle id="O1a3_0.1" depart="2912.73" departLane="0">
        <route edges="O1a aO4"/>
    </vehicle>
    <vehicle id="O1a3_2.1" depart="2922.35" departLane="2">
        <route edges="O1a aO3"/>
    </vehicle>
    <vehicle id="O1a3_0.2" depart="2945.45" departLane="0">
        <route edges="O1a aO3"/>
    </vehicle>
    <vehicle id="O1a3_2.2" depart="2964.70" departLane="2">
        <route edges="O1a aO4"/>
    </vehicle>
    <vehicle id="O1a3_0.3" depart="2978.18" departLane="0">
        <route edges="O1a aO4"/>
    </vehicle>
    <vehicle id="O1a3_2.3" depart="3007.06" departLane="2">
        <route edges="O1a aO2"/>
    </vehicle>
    <vehicle id="O1a3_0.4" depart="3010.91" departLane="0">
        <route edges="O1a aO2"/>
    </vehicle>
    <vehicle id="O1a3_0.5" depart="3043.64" departLane="0">
        <route edges="O1a aO3"/>
    </vehicle>
    <vehicle id="O1a3_2.4" depart="3049.41" departLane="2">
        <route edges="O1a aO4"/>
    </vehicle>
    <vehicle id="O1a3_0.6" depart="3076.36" departLane="0">
        <route edges="O1a aO3"/>
    </vehicle>
    <vehicle id="O1a3_2.5" depart="3091.76" departLane="2">
        <route edges="O1a aO2"/>
    </vehicle>
    <vehicle id="O1a3_0.7" depart="3109.09" departLane="0">
        <route edges="O1a aO4"/>
    </vehicle>
    <vehicle id="O1a3_2.6" depart="3134.11" departLane="2">
        <route edges="O1a aO4"/>
    </vehicle>
    <vehicle id="O1a3_0.8" depart="3141.82" departLane="0">
        <route edges="O1a aO2"/>
    </vehicle>
    <vehicle id="O1a3_0.9" depart="3174.54" departLane="0">
        <route edges="O1a aO4"/>
    </vehicle>
    <vehicle id="O1a3_2.7" depart="3176.46" departLane="2">
        <route edges="O1a aO3"/>
    </vehicle>
    <vehicle id="O1a3_0.10" depart="3207.27" departLane="0">
        <route edges="O1a aO3"/>
    </vehicle>
    <vehicle id="O1a3_2.8" depart="3218.82" departLane="2">
        <route edges="O1a aO3"/>
    </vehicle>
    <vehicle id="O1a3_0.11" depart="3240.00" departLane="0">
        <route edges="O1a aO2"/>
    </vehicle>
    <vehicle id="O1a3_2.9" depart="3261.17" departLane="2">
        <route edges="O1a aO3"/>
    </vehicle>
    <vehicle id="O1a3_0.12" depart="3272.72" departLane="0">
        <route edges="O1a aO3"/>
    </vehicle>
    <vehicle id="O1a3_2.10" depart="3303.52" departLane="2">
        <route edges="O1a aO2"/>
    </vehicle>
    <vehicle id="O1a3_0.13" depart="3305.45" departLane="0">
        <route edges="O1a aO4"/>
    </vehicle>
    <vehicle id="O1a3_0.14" depart="3338.18" departLane="0">
        <route edges="O1a aO4"/>
    </vehicle>
    <vehicle id="O1a3_2.11" depart="3345.87" departLane="2">
        <route edges="O1a aO4"/>
    </vehicle>
    <vehicle id="O1a3_0.15" depart="3370.91" departLane="0">
        <route edges="O1a aO4"/>
    </vehicle>
    <vehicle id="O1a3_2.12" depart="3388.22" departLane="2">
        <route edges="O1a aO3"/>
    </vehicle>
    <vehicle id="O1a3_0.16" depart="3403.63" departLane="0">
        <route edges="O1a aO3"/>
    </vehicle>
    <vehicle id="O1a3_2.13" depart="3430.58" departLane="2">
        <route edges="O1a aO4"/>
    </vehicle>
    <vehicle id="O1a3_0.17" depart="3436.36" departLane="0">
        <route edges="O1a aO2"/>
    </vehicle>
    <vehicle id="O1a3_0.18" depart="3469.09" departLane="0">
        <route edges="O1a aO3"/>
    </vehicle>
    <vehicle id="O1a3_2.14" depart="3472.93" departLane="2">
        <route edges="O1a aO3"/>
    </vehicle>
    <vehicle id="O1a3_0.19" depart="3501.81" departLane="0">
        <route edges="O1a aO4"/>
    </vehicle>
    <vehicle id="O1a3_2.15" depart="3515.28" departLane="2">
        <route edges="O1a aO4"/>
    </vehicle>
    <vehicle id="O1a3_0.20" depart="3534.54" departLane="0">
        <route edges="O1a aO3"/>
    </vehicle>
    <vehicle id="O1a3_2.16" depart="3557.63" departLane="2">
        <route edges="O1a aO4"/>
    </vehicle>
    <vehicle id="O1a3_0.21" depart="3567.27" departLane="0">
        <route edges="O1a aO3"/>
    </vehicle>
    <vehicle id="O1a3_2.17" depart="3599.98" departLane="2">
        <route edges="O1a aO3"/>
    </vehicle>
    <vehicle id="O1a3_0.22" depart="3599.99" departLane="0">
        <route edges="O1a aO2"/>
    </vehicle>
    <vehicle id="O1a3_1.1" depart="3600.00" departLane="1">
        <route edges="O1a aO3"/>
    </vehicle>
    <vehicle id="O1a3_0.23" depart="3632.72" departLane="0">
        <route edges="O1a aO2"/>
    </vehicle>
    <vehicle id="O1a3_2.18" depart="3642.34" departLane="2">
        <route edges="O1a aO4"/>
    </vehicle>
    <vehicle id="O1a3_0.24" depart="3665.45" departLane="0">
        <route edges="O1a aO4"/>
    </vehicle>
    <vehicle id="O1a3_2.19" depart="3684.69" departLane="2">
        <route edges="O1a aO3"/>
    </vehicle>
    <vehicle id="O1a3_0.25" depart="3698.18" departLane="0">
        <route edges="O1a aO4"/>
    </vehicle>
    <vehicle id="O1a3_2.20" depart="3727.04" departLane="2">
        <route edges="O1a aO3"/>
    </vehicle>
    <vehicle id="O1a3_0.26" depart="3730.90" departLane="0">
        <route edges="O1a aO3"/>
    </vehicle>
    <vehicle id="O1a3_0.27" depart="3763.63" departLane="0">
        <route edges="O1a aO4"/>
    </vehicle>
    <vehicle id="O1a3_2.21" depart="3769.39" departLane="2">
        <route edges="O1a aO2"/>
    </vehicle>
    <vehicle id="O1a3_0.28" depart="3796.36" departLane="0">
        <route edges="O1a aO2"/>
    </vehicle>
    <vehicle id="O1a3_2.22" depart="3811.74" departLane="2">
        <route edges="O1a aO2"/>
    </vehicle>
    <vehicle id="O1a3_0.29" depart="3829.08" departLane="0">
        <route edges="O1a aO3"/>
    </vehicle>
    <vehicle id="O1a3_2.23" depart="3854.10" departLane="2">
        <route edges="O1a aO4"/>
    </vehicle>
    <vehicle id="O1a3_0.30" depart="3861.81" departLane="0">
        <route edges="O1a aO4"/>
    </vehicle>
    <vehicle id="O1a3_0.31" depart="3894.54" departLane="0">
        <route edges="O1a aO2"/>
    </vehicle>
    <vehicle id="O1a3_2.24" depart="3896.45" departLane="2">
        <route edges="O1a aO4"/>
    </vehicle>
    <vehicle id="O1a3_0.32" depart="3927.26" departLane="0">
        <route edges="O1a aO3"/>
    </vehicle>
    <vehicle id="O1a3_2.25" depart="3938.80" departLane="2">
        <route edges="O1a aO3"/>
    </vehicle>
    <vehicle id="O1a3_0.33" depart="3959.99" departLane="0">
        <route edges="O1a aO4"/>
    </vehicle>
    <vehicle id="O1a3_2.26" depart="3981.15" departLane="2">
        <route edges="O1a aO4"/>
    </vehicle>
    <vehicle id="O1a3_0.34" depart="3992.72" departLane="0">
        <route edges="O1a aO3"/>
    </vehicle>
    <vehicle id="O1a3_2.27" depart="4023.50" departLane="2">
        <route edges="O1a aO2"/>
    </vehicle>
    <vehicle id="O1a3_0.35" depart="4025.45" departLane="0">
        <route edges="O1a aO3"/>
    </vehicle>
    <vehicle id="O1a3_0.36" depart="4058.17" departLane="0">
        <route edges="O1a aO4"/>
    </vehicle>
    <vehicle id="O1a3_2.28" depart="4065.86" departLane="2">
        <route edges="O1a aO2"/>
    </vehicle>
    <vehicle id="O1a3_0.37" depart="4090.90" departLane="0">
        <route edges="O1a aO4"/>
    </vehicle>
    <vehicle id="O1a3_2.29" depart="4108.21" departLane="2">
        <route edges="O1a aO3"/>
    </vehicle>
    <vehicle id="O1a3_0.38" depart="4123.63" departLane="0">
        <route edges="O1a aO3"/>
    </vehicle>
    <vehicle id="O1a3_2.30" depart="4150.56" departLane="2">
        <route edges="O1a aO2"/>
    </vehicle>
    <vehicle id="O1a3_0.39" depart="4156.35" departLane="0">
        <route edges="O1a aO4"/>
    </vehicle>
    <vehicle id="O1a3_0.40" depart="4189.08" departLane="0">
        <route edges="O1a aO2"/>
    </vehicle>
    <vehicle id="O1a3_2.31" depart="4192.91" departLane="2">
        <route edges="O1a aO4"/>
    </vehicle>
    <vehicle id="O1a3_0.41" depart="4221.81" departLane="0">
        <route edges="O1a aO3"/>
    </vehicle>
    <vehicle id="O1a3_2.32" depart="4235.26" departLane="2">
        <route edges="O1a aO2"/>
    </vehicle>
    <vehicle id="O1a3_0.42" depart="4254.53" departLane="0">
        <route edges="O1a aO3"/>
    </vehicle>
    <vehicle id="O1a3_2.33" depart="4277.62" departLane="2">
        <route edges="O1a aO3"/>
    </vehicle>
    <vehicle id="O1a3_0.43" depart="4287.26" departLane="0">
        <route edges="O1a aO4"/>
    </vehicle>
    <vehicle id="O1a4_0.0" depart="4320.00" departLane="0">
        <route edges="O1a aO2"/>
    </vehicle>
    <vehicle id="O1a4_1.0" depart="4320.00" departLane="1">
        <route edges="O1a aO2"/>
    </vehicle>
    <vehicle id="O1a4_2.0" depart="4320.00" departLane="2">
        <route edges="O1a aO2"/>
    </vehicle>
    <vehicle id="O1a4_2.1" depart="4353.49" departLane="2">
        <route edges="O1a aO2"/>
    </vehicle>
    <vehicle id="O1a4_0.1" depart="4368.00" departLane="0">
        <route edges="O1a aO4"/>
    </vehicle>
    <vehicle id="O1a4_2.2" depart="4386.98" departLane="2">
        <route edges="O1a aO2"/>
    </vehicle>
    <vehicle id="O1a4_0.2" depart="4416.00" departLane="0">
        <route edges="O1a aO2"/>
    </vehicle>
    <vehicle id="O1a4_2.3" depart="4420.46" departLane="2">
        <route edges="O1a aO4"/>
    </vehicle>
    <vehicle id="O1a4_2.4" depart="4453.95" departLane="2">
        <route edges="O1a aO3"/>
    </vehicle>
    <vehicle id="O1a4_0.3" depart="4464.00" departLane="0">
        <route edges="O1a aO4"/>
    </vehicle>
    <vehicle id="O1a4_2.5" depart="4487.44" departLane="2">
        <route edges="O1a aO2"/>
    </vehicle>
    <vehicle id="O1a4_0.4" depart="4512.00" departLane="0">
        <route edges="O1a aO2"/>
    </vehicle>
    <vehicle id="O1a4_2.6" depart="4520.93" departLane="2">
        <route edges="O1a aO2"/>
    </vehicle>
    <vehicle id="O1a4_2.7" depart="4554.42" departLane="2">
        <route edges="O1a aO4"/>
    </vehicle>
    <vehicle id="O1a4_0.5" depart="4560.00" departLane="0">
        <route edges="O1a aO2"/>
    </vehicle>
    <vehicle id="O1a4_2.8" depart="4587.90" departLane="2">
        <route edges="O1a aO2"/>
    </vehicle>
    <vehicle id="O1a4_0.6" depart="4608.00" departLane="0">
        <route edges="O1a aO4"/>
    </vehicle>
    <vehicle id="O1a4_1.1" depart="4608.00" departLane="1">
        <route edges="O1a aO2"/>
    </vehicle>
    <vehicle id="O1a4_2.9" depart="4621.39" departLane="2">
        <route edges="O1a aO2"/>
    </vehicle>
    <vehicle id="O1a4_2.10" depart="4654.88" departLane="2">
        <route edges="O1a aO3"/>
    </vehicle>
    <vehicle id="O1a4_0.7" depart="4656.00" departLane="0">
        <route edges="O1a aO3"/>
    </vehicle>
    <vehicle id="O1a4_2.11" depart="4688.37" departLane="2">
        <route edges="O1a aO2"/>
    </vehicle>
    <vehicle id="O1a4_0.8" depart="4704.00" departLane="0">
        <route edges="O1a aO4"/>
    </vehicle>
    <vehicle id="O1a4_2.12" depart="4721.86" departLane="2">
        <route edges="O1a aO4"/>
    </vehicle>
    <vehicle id="O1a4_0.9" depart="4752.00" departLane="0">
        <route edges="O1a aO3"/>
    </vehicle>
    <vehicle id="O1a4_2.13" depart="4755.34" departLane="2">
        <route edges="O1a aO4"/>
    </vehicle>
    <vehicle id="O1a4_2.14" depart="4788.83" departLane="2">
        <route edges="O1a aO3"/>
    </vehicle>
    <vehicle id="O1a4_0.10" depart="4800.00" departLane="0">
        <route edges="O1a aO3"/>
    </vehicle>
    <vehicle id="O1a4_2.15" depart="4822.32" departLane="2">
        <route edges="O1a aO4"/>
    </vehicle>
    <vehicle id="O1a4_0.11" depart="4848.00" departLane="0">
        <route edges="O1a aO2"/>
    </vehicle>
    <vehicle id="O1a4_2.16" depart="4855.81" departLane="2">
        <route edges="O1a aO3"/>
    </vehicle>
    <vehicle id="O1a4_2.17" depart="4889.30" departLane="2">
        <route edges="O1a aO2"/>
    </vehicle>
    <vehicle id="O1a4_0.12" depart="4896.00" departLane="0">
        <route edges="O1a aO3"/>
    </vehicle>
    <vehicle id="O1a4_1.2" depart="4896.00" departLane="1">
        <route edges="O1a aO4"/>
    </vehicle>
    <vehicle id="O1a4_2.18" depart="4922.78" departLane="2">
        <route edges="O1a aO4"/>
    </vehicle>
    <vehicle id="O1a4_0.13" depart="4944.00" departLane="0">
        <route edges="O1a aO2"/>
    </vehicle>
    <vehicle id="O1a4_2.19" depart="4956.27" departLane="2">
        <route edges="O1a aO3"/>
    </vehicle>
    <vehicle id="O1a4_2.20" depart="4989.76" departLane="2">
        <route edges="O1a aO2"/>
    </vehicle>
    <vehicle id="O1a4_0.14" depart="4992.00" departLane="0">
        <route edges="O1a aO3"/>
    </vehicle>
    <vehicle id="O1a4_2.21" depart="5023.25" departLane="2">
        <route edges="O1a aO4"/>
    </vehicle>
    <vehicle id="O1a4_0.15" depart="5040.00" departLane="0">
        <route edges="O1a aO3"/>
    </vehicle>
    <vehicle id="O1a4_2.22" depart="5056.74" departLane="2">
        <route edges="O1a aO4"/>
    </vehicle>
    <vehicle id="O1a4_0.16" depart="5088.00" departLane="0">
        <route edges="O1a aO2"/>
    </vehicle>
    <vehicle id="O1a4_2.23" depart="5090.22" departLane="2">
        <route edges="O1a aO2"/>
    </vehicle>
    <vehicle id="O1a4_2.24" depart="5123.71" departLane="2">
        <route edges="O1a aO4"/>
    </vehicle>
    <vehicle id="O1a4_0.17" depart="5136.00" departLane="0">
        <route edges="O1a aO3"/>
    </vehicle>
    <vehicle id="O1a4_2.25" depart="5157.20" departLane="2">
        <route edges="O1a aO2"/>
    </vehicle>
    <vehicle id="O1a4_0.18" depart="5184.00" departLane="0">
        <route edges="O1a aO2"/>
    </vehicle>
    <vehicle id="O1a4_1.3" depart="5184.00" departLane="1">
        <route edges="O1a aO3"/>
    </vehicle>
    <vehicle id="O1a4_2.26" depart="5190.69" departLane="2">
        <route edges="O1a aO2"/>
    </vehicle>
    <vehicle id="O1a4_2.27" depart="5224.18" departLane="2">
        <route edges="O1a aO4"/>
    </vehicle>
    <vehicle id="O1a4_0.19" depart="5232.00" departLane="0">
        <route edges="O1a aO3"/>
    </vehicle>
    <vehicle id="O1a4_2.28" depart="5257.66" departLane="2">
        <route edges="O1a aO4"/>
    </vehicle>
    <vehicle id="O1a4_0.20" depart="5280.00" departLane="0">
        <route edges="O1a aO2"/>
    </vehicle>
    <vehicle id="O1a4_2.29" depart="5291.15" departLane="2">
        <route edges="O1a aO2"/>
    </vehicle>
    <vehicle id="O1a4_2.30" depart="5324.64" departLane="2">
        <route edges="O1a aO4"/>
    </vehicle>
    <vehicle id="O1a4_0.21" depart="5328.00" departLane="0">
        <route edges="O1a aO3"/>
    </vehicle>
    <vehicle id="O1a4_2.31" depart="5358.13" departLane="2">
        <route edges="O1a aO3"/>
    </vehicle>
    <vehicle id="O1a4_0.22" depart="5376.00" departLane="0">
        <route edges="O1a aO2"/>
    </vehicle>
    <vehicle id="O1a4_2.32" depart="5391.62" departLane="2">
        <route edges="O1a aO2"/>
    </vehicle>
    <vehicle id="O1a4_0.23" depart="5424.00" departLane="0">
        <route edges="O1a aO2"/>
    </vehicle>
    <vehicle id="O1a4_2.33" depart="5425.10" departLane="2">
        <route edges="O1a aO4"/>
    </vehicle>
    <vehicle id="O1a4_2.34" depart="5458.59" departLane="2">
        <route edges="O1a aO2"/>
    </vehicle>
    <vehicle id="O1a4_0.24" depart="5472.00" departLane="0">
        <route edges="O1a aO3"/>
    </vehicle>
    <vehicle id="O1a4_1.4" depart="5472.00" departLane="1">
        <route edges="O1a aO2"/>
    </vehicle>
    <vehicle id="O1a4_2.35" depart="5492.08" departLane="2">
        <route edges="O1a aO3"/>
    </vehicle>
    <vehicle id="O1a4_0.25" depart="5520.00" departLane="0">
        <route edges="O1a aO2"/>
    </vehicle>
    <vehicle id="O1a4_2.36" depart="5525.57" departLane="2">
        <route edges="O1a aO2"/>
    </vehicle>
    <vehicle id="O1a4_2.37" depart="5559.06" departLane="2">
        <route edges="O1a aO2"/>
    </vehicle>
    <vehicle id="O1a4_0.26" depart="5568.00" departLane="0">
        <route edges="O1a aO2"/>
    </vehicle>
    <vehicle id="O1a4_2.38" depart="5592.54" departLane="2">
        <route edges="O1a aO4"/>
    </vehicle>
    <vehicle id="O1a4_0.27" depart="5616.00" departLane="0">
        <route edges="O1a aO3"/>
    </vehicle>
    <vehicle id="O1a4_2.39" depart="5626.03" departLane="2">
        <route edges="O1a aO3"/>
    </vehicle>
    <vehicle id="O1a4_2.40" depart="5659.52" departLane="2">
        <route edges="O1a aO4"/>
    </vehicle>
    <vehicle id="O1a4_0.28" depart="5664.00" departLane="0">
        <route edges="O1a aO3"/>
    </vehicle>
    <vehicle id="O1a4_2.41" depart="5693.01" departLane="2">
        <route edges="O1a aO4"/>
    </vehicle>
    <vehicle id="O1a4_0.29" depart="5712.00" departLane="0">
        <route edges="O1a aO3"/>
    </vehicle>
    <vehicle id="O1a4_2.42" depart="5726.50" departLane="2">
        <route edges="O1a aO3"/>
    </vehicle>
    <vehicle id="O1a5_0.0" depart="5760.00" departLane="0">
        <route edges="O1a aO3"/>
    </vehicle>
    <vehicle id="O1a5_1.0" depart="5760.00" departLane="1">
        <route edges="O1a aO3"/>