<flows>
	<flow id="O1a1_0" from="O1a" begin="0" end="1440" number="43" departLane="0"/>
	<flow id="O1a1_1" from="O1a" begin="0" end="1440" number="2" departLane="1"/>
	<flow id="O1a1_2" from="O1a" begin="0" end="1440" number="12" departLane="2"/>
	<flow id="O1a2_0" from="O1a" begin="1440" end="2880" number="6" departLane="0"/>
	<flow id="O1a2_1" from="O1a" begin="1440" end="2880" number="13" departLane="1"/>
	<flow id="O1a2_2" from="O1a" begin="1440" end="2880" number="25" departLane="2"/>
	<flow id="O1a3_0" from="O1a" begin="2880" end="4320" number="44" departLane="0"/>
	<flow id="O1a3_1" from="O1a" begin="2880" end="4320" number="2" departLane="1"/>
	<flow id="O1a3_2" from="O1a" begin="2880" end="4320" number="34" departLane="2"/>
	<flow id="O1a4_0" from="O1a" begin="4320" end="5760" number="30" departLane="0"/>
	<flow id="O1a4_1" from="O1a" begin="4320" end="5760" number="5" departLane="1"/>
	<flow id="O1a4_2" from="O1a" begin="4320" end="5760" number="43" departLane="2"/>
	<flow id="O1a5_0" from="O1a" begin="5760" end="7200" number="4" departLane="0"/>
	<flow id="O1a5_1" from="O1a" begin="5760" end="7200" number="40" departLane="1"/>
	<flow id="O1a5_2" from="O1a" begin="5760" end="7200" number="46" departLane="2"/>
	<flow id="O1a6_0" from="O1a" begin="7200" end="8640" number="13" departLane="0"/>
	<flow id="O1a6_1" from="O1a" begin="7200" end="8640" number="34" departLane="1"/>
	<flow id="O1a6_2" from="O1a" begin="7200" end="8640" number="26" departLane="2"/>
	<flow id="O1a7_0" from="O1a" begin="8640" end="10080" number="26" departLane="0"/>
	<flow id="O1a7_1" from="O1a" begin="8640" end="10080" number="15" departLane="1"/>
	<flow id="O1a7_2" from="O1a" begin="8640" end="10080" number="7" departLane="2"/>
	<flow id="O1a8_0" from="O1a" begin="10080" end="11520" number="46" departLane="0"/>
	<flow id="O1a8_1" from="O1a" begin="10080" end="11520" number="46" departLane="1"/>
	<flow id="O1a8_2" from="O1a" begin="10080" end="11520" number="7" departLane="2"/>
	<flow id="O1a9_0" from="O1a" begin="11520" end="12960" number="46" departLane="0"/>
	<flow id="O1a9_1" from="O1a" begin="11520" end="12960" number="2" departLane="1"/>
	<flow id="O1a9_2" from="O1a" begin="11520" end="12960" number="12" departLane="2"/>
	<flow id="O1a10_0" from="O1a" begin="12960" end="14400" number="8" departLane="0"/>
	<flow id="O1a10_1" from="O1a" begin="12960" end="14400" number="21" departLane="1"/>
	<flow id="O1a10_2" from="O1a" begin="12960" end="14400" number="41" departLane="2"/>
	<flow id="O1a11_0" from="O1a" begin="14400" end="15840" number="46" departLane="0"/>
	<flow id="O1a11_1" from="O1a" begin="14400" end="15840" number="18" departLane="1"/>
	<flow id="O1a11_2" from="O1a" begin="14400" end="15840" number="13" departLane="2"/>
	<flow id="O1a12_0" from="O1a" begin="15840" end="17280" number="46" departLane="0"/>
	<flow id="O1a12_1" from="O1a" begin="15840" end="17280" number="37" departLane="1"/>
	<flow id="O1a12_2" from="O1a" begin="15840" end="17280" number="39" departLane="2"/>
	<flow id="O1a13_0" from="O1a" begin="17280" end="18720" number="23" departLane="0"/>
	<flow id="O1a13_1" from="O1a" begin="17280" end="18720" number="38" departLane="1"/>
	<flow id="O1a13_2" from="O1a" begin="17280" end="18720" number="12" departLane="2"/>
	<flow id="O1a14_0" from="O1a" begin="18720" end="20160" number="38" departLane="0"/>
	<flow id="O1a14_1" from="O1a" begin="18720" end="20160" number="9" departLane="1"/>
	<flow id="O1a14_2" from="O1a" begin="18720" end="20160" number="45" departLane="2"/>
	<flow id="O1a15_0" from="O1a" begin="20160" end="21600" number="6" departLane="0"/>
	<flow id="O1a15_1" from="O1a" begin="20160" end="21600" number="24" departLane="1"/>
	<flow id="O1a15_2" from="O1a" begin="20160" end="21600" number="17" departLane="2"/>
	<flow id="O1a16_0" from="O1a" begin="21600" end="23040" number="20" departLane="0"/>
	<flow id="O1a16_1" from="O1a" begin="21600" end="23040" number="21" departLane="1"/>
	<flow id="O1a16_2" from="O1a" begin="21600" end="23040" number="10" departLane="2"/>
	<flow id="O1a17_0" from="O1a" begin="23040" end="24480" number="44" departLane="0"/>
	<flow id="O1a17_1" from="O1a" begin="23040" end="24480" number="31" departLane="1"/>
	<flow id="O1a17_2" from="O1a" begin="23040" end="24480" number="12" departLane="2"/>
	<flow id="O1a18_0" from="O1a" begin="24480" end="25920" number="38" departLane="0"/>
	<flow id="O1a18_1" from="O1a" begin="24480" end="25920" number="34" departLane="1"/>
	<flow id="O1a18_2" from="O1a" begin="24480" end="25920" number="30" departLane="2"/>
	<flow id="O1a19_0" from="O1a" begin="25920" end="27360" number="46" departLane="0"/>
	<flow id="O1a19_1" from="O1a" begin="25920" end="27360" number="36" departLane="1"/>
	<flow id="O1a19_2" from="O1a" begin="25920" end="27360" number="23" departLane="2"/>
	<flow id="O1a20_0" from="O1a" begin="27360" end="28800" number="32" departLane="0"/>
	<flow id="O1a20_1" from="O1a" begin="27360" end="28800" number="13" departLane="1"/>
	<flow id="O1a20_2" from="O1a" begin="27360" end="28800" number="17" departLane="2"/>
	<flow id="O1a21_0" from="O1a" begin="28800" end="30240" number="1" departLane="0"/>
	<flow id="O1a21_1" from="O1a" begin="28800" end="30240" number="33" departLane="1"/>
	<flow id="O1a21_2" from="O1a" begin="28800" end="30240" number="40" departLane="2"/>
	<flow id="O1a22_0" from="O1a" begin="30240" end="31680" number="41" departLane="0"/>
	<flow id="O1a22_1" from="O1a" begin="30240" end="31680" number="31" departLane="1"/>
	<flow id="O1a22_2" from="O1a" begin="30240" end="31680" number="28" departLane="2"/>
	<flow id="O1a23_0" from="O1a" begin="31680" end="33120" number="45" departLane="0"/>
	<flow id="O1a23_1" from="O1a" begin="31680" end="33120" number="8" departLane="1"/>
	<flow id="O1a23_2" from="O1a" begin="31680" end="33120" number="27" departLane="2"/>
	<flow id="O1a24_0" from="O1a" begin="33120" end="34560" number="32" departLane="0"/>
	<flow id="O1a24_1" from="O1a" begin="33120" end="34560" number="6" departLane="1"/>
	<flow id="O1a24_2" from="O1a" begin="33120" end="34560" number="44" departLane="2"/>
	<flow id="O1a25_0" from="O1a" begin="34560" end="36000" number="36" departLane="0"/>
	<flow id="O1a25_1" from="O1a" begin="34560" end="36000" number="24" departLane="1"/>
	<flow id="O1a25_2" from="O1a" begin="34560" end="36000" number="14" departLane="2"/>
	<flow id="O1a26_0" from="O1a" begin="36000" end="37440" number="35" departLane="0"/>
	<flow id="O1a26_1" from="O1a" begin="36000" end="37440" number="46" departLane="1"/>
	<flow id="O1a26_2" from="O1a" begin="36000" end="37440" number="37" departLane="2"/>
	<flow id="O1a27_0" from="O1a" begin="37440" end="38880" number="18" departLane="0"/>
	<flow id="O1a27_1" from="O1a" begin="37440" end="38880" number="17" departLane="1"/>
	<flow id="O1a27_2" from="O1a" begin="37440" end="38880" number="36" departLane="2"/>
	<flow id="O1a28_0" from="O1a" begin="38880" end="40320" number="31" departLane="0"/>
	<flow id="O1a28_1" from="O1a" begin="38880" end="40320" number="28" departLane="1"/>
	<flow id="O1a28_2" from="O1a" begin="38880" end="40320" number="19" departLane="2"/>
	<flow id="O1a29_0" from="O1a" begin="40320" end="41760" number="8" departLane="0"/>
	<flow id="O1a29_1" from="O1a" begin="40320" end="41760" number="11" departLane="1"/>
	<flow id="O1a29_2" from="O1a" begin="40320" end="41760" number="27" departLane="2"/>
</flows>