<?xml version="1.0" encoding="UTF-8"?>

<!-- generated on 03/02/15 08:59:10 by SUMO jtrrouter Version 0.21.0
<?xml version="1.0" encoding="UTF-8"?>

<configuration xmlns:xsi="http://www.w3.org/2001/XMLSchema-instance" xsi:noNamespaceSchemaLocation="http://sumo-sim.org/xsd/jtrrouterConfiguration.xsd">

    <input>
        <net-file value="C:\Users\AndresFelipe\Documents\MATLAB\sumolib4matlab\examples\interseccion_aislada\interseccion_aislada.net.xml"/>
        <flow-files value="C:\Users\AndresFelipe\Documents\MATLAB\sumolib4matlab\examples\interseccion_aislada\generateDemandDemo.trips.xml"/>
        <turn-ratio-files value="C:\Users\AndresFelipe\Documents\MATLAB\sumolib4matlab\examples\interseccion_aislada\generateDemandDemo.turns.xml"/>
    </input>

    <output>
        <output-file value="C:\Users\AndresFelipe\Documents\MATLAB\sumolib4matlab\examples\interseccion_aislada\generateDemandDemo.rou.xml"/>
    </output>

    <processing>
        <ignore-errors value="true"/>
    </processing>

    <defaults>
        <departlane value="free"/>
    </defaults>

</configuration>
-->

<routes xmlns:xsi="http://www.w3.org/2001/XMLSchema-instance" xsi:noNamespaceSchemaLocation="http://sumo-sim.org/xsd/routes_file.xsd">
    <vehicle id="O1a1_0.0" depart="0.00" departLane="0">
        <route edges="O1a aO4"/>
    </vehicle>
    <vehicle id="O1a1_1.0" depart="0.00" departLane="1">
        <route edges="O1a aO4"/>
    </vehicle>
    <vehicle id="O1a1_2.0" depart="0.00" departLane="2">
        <route edges="O1a aO2"/>
    </vehicle>
    <vehicle id="O4a1_0.0" depart="0.00" departLane="0">
        <route edges="O4a aO1"/>
    </vehicle>
    <vehicle id="O4a1_1.0" depart="0.00" departLane="1">
        <route edges="O4a aO1"/>
    </vehicle>
    <vehicle id="O4a1_2.0" depart="0.00" departLane="2">
        <route edges="O4a aO1"/>
    </vehicle>
    <vehicle id="O4a1_2.1" depart="40.00" departLane="2">
        <route edges="O4a aO3"/>
    </vehicle>
    <vehicle id="O1a1_0.1" depart="48.00" departLane="0">
        <route edges="O1a aO3"/>
    </vehicle>
    <vehicle id="O1a1_2.1" depart="51.43" departLane="2">
        <route edges="O1a aO4"/>
    </vehicle>
    <vehicle id="O4a1_1.1" depart="60.00" departLane="1">
        <route edges="O4a aO3"/>
    </vehicle>
    <vehicle id="O4a1_2.2" depart="80.00" departLane="2">
        <route edges="O4a aO1"/>
    </vehicle>
    <vehicle id="O4a1_0.1" depart="90.00" departLane="0">
        <route edges="O4a aO2"/>
    </vehicle>
    <vehicle id="O1a1_0.2" depart="96.00" departLane="0">
        <route edges="O1a aO4"/>
    </vehicle>
    <vehicle id="O1a1_2.2" depart="102.86" departLane="2">
        <route edges="O1a aO4"/>
    </vehicle>
    <vehicle id="O4a1_1.2" depart="120.00" departLane="1">
        <route edges="O4a aO1"/>
    </vehicle>
    <vehicle id="O4a1_2.3" depart="120.00" departLane="2">
        <route edges="O4a aO1"/>
    </vehicle>
    <vehicle id="O1a1_0.3" depart="144.00" departLane="0">
        <route edges="O1a aO2"/>
    </vehicle>
    <vehicle id="O1a1_2.3" depart="154.28" departLane="2">
        <route edges="O1a aO4"/>
    </vehicle>
    <vehicle id="O4a1_2.4" depart="160.00" departLane="2">
        <route edges="O4a aO1"/>
    </vehicle>
    <vehicle id="O4a1_0.2" depart="180.00" departLane="0">
        <route edges="O4a aO2"/>
    </vehicle>
    <vehicle id="O4a1_1.3" depart="180.00" departLane="1">
        <route edges="O4a aO1"/>
    </vehicle>
    <vehicle id="O1a1_0.4" depart="192.00" departLane="0">
        <route edges="O1a aO4"/>
    </vehicle>
    <vehicle id="O4a1_2.5" depart="200.00" departLane="2">
        <route edges="O4a aO1"/>
    </vehicle>
    <vehicle id="O1a1_2.4" depart="205.71" departLane="2">
        <route edges="O1a aO4"/>
    </vehicle>
    <vehicle id="O1a1_0.5" depart="240.00" departLane="0">
        <route edges="O1a aO4"/>
    </vehicle>
    <vehicle id="O4a1_1.4" depart="240.00" departLane="1">
        <route edges="O4a aO3"/>
    </vehicle>
    <vehicle id="O4a1_2.6" depart="240.00" departLane="2">
        <route edges="O4a aO3"/>
    </vehicle>
    <vehicle id="O1a1_2.5" depart="257.14" departLane="2">
        <route edges="O1a aO3"/>
    </vehicle>
    <vehicle id="O4a1_0.3" depart="270.00" departLane="0">
        <route edges="O4a aO1"/>
    </vehicle>
    <vehicle id="O4a1_2.7" depart="280.00" departLane="2">
        <route edges="O4a aO1"/>
    </vehicle>
    <vehicle id="O1a1_0.6" depart="288.00" departLane="0">
        <route edges="O1a aO2"/>
    </vehicle>
    <vehicle id="O4a1_1.5" depart="300.00" departLane="1">
        <route edges="O4a aO1"/>
    </vehicle>
    <vehicle id="O1a1_2.6" depart="308.57" departLane="2">
        <route edges="O1a aO4"/>
    </vehicle>
    <vehicle id="O4a1_2.8" depart="320.00" departLane="2">
        <route edges="O4a aO1"/>
    </vehicle>
    <vehicle id="O1a1_0.7" depart="336.00" departLane="0">
        <route edges="O1a aO4"/>
    </vehicle>
    <vehicle id="O1a1_2.7" depart="360.00" departLane="2">
        <route edges="O1a aO2"/>
    </vehicle>
    <vehicle id="O4a1_0.4" depart="360.00" departLane="0">
        <route edges="O4a aO2"/>
    </vehicle>
    <vehicle id="O4a1_1.6" depart="360.00" departLane="1">
        <route edges="O4a aO1"/>
    </vehicle>
    <vehicle id="O4a1_2.9" depart="360.00" departLane="2">
        <route edges="O4a aO1"/>
    </vehicle>
    <vehicle id="O1a1_0.8" depart="384.00" departLane="0">
        <route edges="O1a aO3"/>
    </vehicle>
    <vehicle id="O4a1_2.10" depart="400.00" departLane="2">
        <route edges="O4a aO1"/>
    </vehicle>
    <vehicle id="O1a1_2.8" depart="411.42" departLane="2">
        <route edges="O1a aO4"/>
    </vehicle>
    <vehicle id="O4a1_1.7" depart="420.00" departLane="1">
        <route edges="O4a aO1"/>
    </vehicle>
    <vehicle id="O1a1_0.9" depart="432.00" departLane="0">
        <route edges="O1a aO3"/>
    </vehicle>
    <vehicle id="O4a1_2.11" depart="440.00" departLane="2">
        <route edges="O4a aO1"/>
    </vehicle>
    <vehicle id="O4a1_0.5" depart="450.00" departLane="0">
        <route edges="O4a aO1"/>
    </vehicle>
    <vehicle id="O1a1_2.9" depart="462.85" departLane="2">
        <route edges="O1a aO3"/>
    </vehicle>
    <vehicle id="O1a1_0.10" depart="480.00" departLane="0">
        <route edges="O1a aO4"/>
    </vehicle>
    <vehicle id="O4a1_1.8" depart="480.00" departLane="1">
        <route edges="O4a aO1"/>
    </vehicle>
    <vehicle id="O4a1_2.12" depart="480.00" departLane="2">
        <route edges="O4a aO2"/>
    </vehicle>
    <vehicle id="O1a1_2.10" depart="514.28" departLane="2">
        <route edges="O1a aO4"/>
    </vehicle>
    <vehicle id="O4a1_2.13" depart="520.00" departLane="2">
        <route edges="O4a aO1"/>
    </vehicle>
    <vehicle id="O1a1_0.11" depart="528.00" departLane="0">
        <route edges="O1a aO4"/>
    </vehicle>
    <vehicle id="O4a1_0.6" depart="540.00" departLane="0">
        <route edges="O4a aO3"/>
    </vehicle>
    <vehicle id="O4a1_1.9" depart="540.00" departLane="1">
        <route edges="O4a aO3"/>
    </vehicle>
    <vehicle id="O4a1_2.14" depart="560.00" departLane="2">
        <route edges="O4a aO1"/>
    </vehicle>
    <vehicle id="O1a1_2.11" depart="565.71" departLane="2">
        <route edges="O1a aO4"/>
    </vehicle>
    <vehicle id="O1a1_0.12" depart="576.00" departLane="0">
        <route edges="O1a aO4"/>
    </vehicle>
    <vehicle id="O4a1_1.10" depart="600.00" departLane="1">
        <route edges="O4a aO1"/>
    </vehicle>
    <vehicle id="O4a1_2.15" depart="600.00" departLane="2">
        <route edges="O4a aO3"/>
    </vehicle>
    <vehicle id="O1a1_2.12" depart="617.14" departLane="2">
        <route edges="O1a aO3"/>
    </vehicle>
    <vehicle id="O1a1_0.13" depart="624.00" departLane="0">
        <route edges="O1a aO4"/>
    </vehicle>
    <vehicle id="O4a1_0.7" depart="630.00" departLane="0">
        <route edges="O4a aO1"/>
    </vehicle>
    <vehicle id="O4a1_2.16" depart="640.00" departLane="2">
        <route edges="O4a aO1"/>
    </vehicle>
    <vehicle id="O4a1_1.11" depart="660.00" departLane="1">
        <route edges="O4a aO1"/>
    </vehicle>
    <vehicle id="O1a1_2.13" depart="668.56" departLane="2">
        <route edges="O1a aO4"/>
    </vehicle>
    <vehicle id="O1a1_0.14" depart="672.00" departLane="0">
        <route edges="O1a aO4"/>
    </vehicle>
    <vehicle id="O4a1_2.17" depart="680.00" departLane="2">
        <route edges="O4a aO1"/>
    </vehicle>
    <vehicle id="O1a1_2.14" depart="719.99" departLane="2">
        <route edges="O1a aO3"/>
    </vehicle>
    <vehicle id="O1a1_0.15" depart="720.00" departLane="0">
        <route edges="O1a aO4"/>
    </vehicle>
    <vehicle id="O1a1_1.1" depart="720.00" departLane="1">
        <route edges="O1a aO3"/>
    </vehicle>
    <vehicle id="O4a1_0.8" depart="720.00" departLane="0">
        <route edges="O4a aO1"/>
    </vehicle>
    <vehicle id="O4a1_1.12" depart="720.00" departLane="1">
        <route edges="O4a aO1"/>
    </vehicle>
    <vehicle id="O4a1_2.18" depart="720.00" departLane="2">
        <route edges="O4a aO1"/>
    </vehicle>
    <vehicle id="O4a1_2.19" depart="760.00" departLane="2">
        <route edges="O4a aO1"/>
    </vehicle>
    <vehicle id="O1a1_0.16" depart="768.00" departLane="0">
        <route edges="O1a aO3"/>
    </vehicle>
    <vehicle id="O1a1_2.15" depart="771.42" departLane="2">
        <route edges="O1a aO2"/>
    </vehicle>
    <vehicle id="O4a1_1.13" depart="780.00" departLane="1">
        <route edges="O4a aO1"/>
    </vehicle>
    <vehicle id="O4a1_2.20" depart="800.00" departLane="2">
        <route edges="O4a aO3"/>
    </vehicle>
    <vehicle id="O4a1_0.9" depart="810.00" departLane="0">
        <route edges="O4a aO1"/>
    </vehicle>
    <vehicle id="O1a1_0.17" depart="816.00" departLane="0">
        <route edges="O1a aO3"/>
    </vehicle>
    <vehicle id="O1a1_2.16" depart="822.85" departLane="2">
        <route edges="O1a aO3"/>
    </vehicle>
    <vehicle id="O4a1_1.14" depart="840.00" departLane="1">
        <route edges="O4a aO2"/>
    </vehicle>
    <vehicle id="O4a1_2.21" depart="840.00" departLane="2">
        <route edges="O4a aO1"/>
    </vehicle>
    <vehicle id="O1a1_0.18" depart="864.00" departLane="0">
        <route edges="O1a aO4"/>
    </vehicle>
    <vehicle id="O1a1_2.17" depart="874.28" departLane="2">
        <route edges="O1a aO3"/>
    </vehicle>
    <vehicle id="O4a1_2.22" depart="880.00" departLane="2">
        <route edges="O4a aO1"/>
    </vehicle>
    <vehicle id="O4a1_0.10" depart="900.00" departLane="0">
        <route edges="O4a aO3"/>
    </vehicle>
    <vehicle id="O4a1_1.15" depart="900.00" departLane="1">
        <route edges="O4a aO1"/>
    </vehicle>
    <vehicle id="O1a1_0.19" depart="912.00" departLane="0">
        <route edges="O1a aO4"/>
    </vehicle>
    <vehicle id="O4a1_2.23" depart="920.00" departLane="2">
        <route edges="O4a aO1"/>
    </vehicle>
    <vehicle id="O1a1_2.18" depart="925.70" departLane="2">
        <route edges="O1a aO4"/>
    </vehicle>
    <vehicle id="O1a1_0.20" depart="960.00" departLane="0">
        <route edges="O1a aO2"/>
    </vehicle>
    <vehicle id="O4a1_1.16" depart="960.00" departLane="1">
        <route edges="O4a aO1"/>
    </vehicle>
    <vehicle id="O4a1_2.24" depart="960.00" departLane="2">
        <route edges="O4a aO1"/>
    </vehicle>
    <vehicle id="O1a1_2.19" depart="977.13" departLane="2">
        <route edges="O1a aO4"/>
    </vehicle>
    <vehicle id="O4a1_0.11" depart="990.00" departLane="0">
        <route edges="O4a aO2"/>
    </vehicle>
    <vehicle id="O4a1_2.25" depart="1000.00" departLane="2">
        <route edges="O4a aO3"/>
    </vehicle>
    <vehicle id="O1a1_0.21" depart="1008.00" departLane="0">
        <route edges="O1a aO4"/>
    </vehicle>
    <vehicle id="O4a1_1.17" depart="1020.00" departLane="1">
        <route edges="O4a aO1"/>
    </vehicle>
    <vehicle id="O1a1_2.20" depart="1028.56" departLane="2">
        <route edges="O1a aO4"/>
    </vehicle>
    <vehicle id="O4a1_2.26" depart="1040.00" departLane="2">
        <route edges="O4a aO1"/>
    </vehicle>
    <vehicle id="O1a1_0.22" depart="1056.00" departLane="0">
        <route edges="O1a aO4"/>
    </vehicle>
    <vehicle id="O1a1_2.21" depart="1079.99" departLane="2">
        <route edges="O1a aO4"/>
    </vehicle>
    <vehicle id="O4a1_0.12" depart="1080.00" departLane="0">
        <route edges="O4a aO3"/>
    </vehicle>
    <vehicle id="O4a1_1.18" depart="1080.00" departLane="1">
        <route edges="O4a aO1"/>
    </vehicle>
    <vehicle id="O4a1_2.27" depart="1080.00" departLane="2">
        <route edges="O4a aO1"/>
    </vehicle>
    <vehicle id="O1a1_0.23" depart="1104.00" departLane="0">
        <route edges="O1a aO3"/>
    </vehicle>
    <vehicle id="O4a1_2.28" depart="1120.00" departLane="2">
        <route edges="O4a aO2"/>
    </vehicle>
    <vehicle id="O1a1_2.22" depart="1131.42" departLane="2">
        <route edges="O1a aO3"/>
    </vehicle>
    <vehicle id="O4a1_1.19" depart="1140.00" departLane="1">
        <route edges="O4a aO1"/>
    </vehicle>
    <vehicle id="O1a1_0.24" depart="1152.00" departLane="0">
        <route edges="O1a aO4"/>
    </vehicle>
    <vehicle id="O4a1_2.29" depart="1160.00" departLane="2">
        <route edges="O4a aO3"/>
    </vehicle>
    <vehicle id="O4a1_0.13" depart="1170.00" departLane="0">
        <route edges="O4a aO1"/>
    </vehicle>
    <vehicle id="O1a1_2.23" depart="1182.84" departLane="2">
        <route edges="O1a aO4"/>
    </vehicle>
    <vehicle id="O1a1_0.25" depart="1200.00" departLane="0">
        <route edges="O1a aO3"/>
    </vehicle>
    <vehicle id="O4a1_1.20" depart="1200.00" departLane="1">
        <route edges="O4a aO3"/>
    </vehicle>
    <vehicle id="O4a1_2.30" depart="1200.00" departLane="2">
        <route edges="O4a aO1"/>
    </vehicle>
    <vehicle id="O1a1_2.24" depart="1234.27" departLane="2">
        <route edges="O1a aO4"/>
    </vehicle>
    <vehicle id="O4a1_2.31" depart="1240.00" departLane="2">
        <route edges="O4a aO1"/>
    </vehicle>
    <vehicle id="O1a1_0.26" depart="1248.00" departLane="0">
        <route edges="O1a aO4"/>
    </vehicle>
    <vehicle id="O4a1_0.14" depart="1260.00" departLane="0">
        <route edges="O4a aO1"/>
    </vehicle>
    <vehicle id="O4a1_1.21" depart="1260.00" departLane="1">
        <route edges="O4a aO1"/>
    </vehicle>
    <vehicle id="O4a1_2.32" depart="1280.00" departLane="2">
        <route edges="O4a aO2"/>
    </vehicle>
    <vehicle id="O1a1_2.25" depart="1285.70" departLane="2">
        <route edges="O1a aO4"/>
    </vehicle>
    <vehicle id="O1a1_0.27" depart="1296.00" departLane="0">
        <route edges="O1a aO4"/>
    </vehicle>
    <vehicle id="O4a1_1.22" depart="1320.00" departLane="1">
        <route edges="O4a aO1"/>
    </vehicle>
    <vehicle id="O4a1_2.33" depart="1320.00" departLane="2">
        <route edges="O4a aO3"/>
    </vehicle>
    <vehicle id="O1a1_2.26" depart="1337.13" departLane="2">
        <route edges="O1a aO3"/>
    </vehicle>
    <vehicle id="O1a1_0.28" depart="1344.00" departLane="0">
        <route edges="O1a aO4"/>
    </vehicle>
    <vehicle id="O4a1_0.15" depart="1350.00" departLane="0">
        <route edges="O4a aO1"/>
    </vehicle>
    <vehicle id="O4a1_2.34" depart="1360.00" departLane="2">
        <route edges="O4a aO1"/>
    </vehicle>
    <vehicle id="O4a1_1.23" depart="1380.00" departLane="1">
        <route edges="O4a aO1"/>
    </vehicle>
    <vehicle id="O1a1_2.27" depart="1388.56" departLane="2">
        <route edges="O1a aO3"/>
    </vehicle>
    <vehicle id="O1a1_0.29" depart="1392.00" departLane="0">
        <route edges="O1a aO4"/>
    </vehicle>
    <vehicle id="O4a1_2.35" depart="1400.00" departLane="2">
        <route edges="O4a aO1"/>
    </vehicle>
    <vehicle id="O1a2_0.0" depart="1440.00" departLane="0">
        <route edges="O1a aO4"/>
    </vehicle>
    <vehicle id="O1a2_1.0" depart="1440.00" departLane="1">
        <route edges="O1a aO3"/>
    </vehicle>
    <vehicle id="O1a2_2.0" depart="1440.00" departLane="2">
        <route edges="O1a aO4"/>
    </vehicle>
    <vehicle id="O4a2_0.0" depart="1440.00" departLane="0">
        <route edges="O4a aO2"/>
    </vehicle>
    <vehicle id="O4a2_1.0" depart="1440.00" departLane="1">
        <route edges="O4a aO3"/>
    </vehicle>
    <vehicle id="O4a2_2.0" depart="1440.00" departLane="2">
        <route edges="O4a aO3"/>
    </vehicle>
    <vehicle id="O1a2_0.1" depart="1472.73" departLane="0">
        <route edges="O1a aO4"/>
    </vehicle>
    <vehicle id="O4a2_0.1" depart="1480.00" departLane="0">
        <route edges="O4a aO1"/>
    </vehicle>
    <vehicle id="O1a2_1.1" depart="1483.64" departLane="1">
        <route edges="O1a aO4"/>
    </vehicle>
    <vehicle id="O1a2_2.1" depart="1491.43" departLane="2">
        <route edges="O1a aO4"/>
    </vehicle>
    <vehicle id="O1a2_0.2" depart="1505.45" departLane="0">
        <route edges="O1a aO4"/>
    </vehicle>
    <vehicle id="O4a2_0.2" depart="1520.00" departLane="0">
        <route edges="O4a aO3"/>
    </vehicle>
    <vehicle id="O1a2_1.2" depart="1527.27" departLane="1">
        <route edges="O1a aO3"/>
    </vehicle>
    <vehicle id="O4a2_1.1" depart="1530.00" departLane="1">
        <route edges="O4a aO1"/>
    </vehicle>
    <vehicle id="O1a2_0.3" depart="1538.18" departLane="0">
        <route edges="O1a aO4"/>
    </vehicle>
    <vehicle id="O1a2_2.2" depart="1542.86" departLane="2">
        <route edges="O1a aO4"/>
    </vehicle>
    <vehicle id="O4a2_0.3" depart="1560.00" departLane="0">
        <route edges="O4a aO1"/>
    </vehicle>
    <vehicle id="O1a2_0.4" depart="1570.91" departLane="0">
        <route edges="O1a aO2"/>
    </vehicle>
    <vehicle id="O1a2_1.3" depart="1570.91" departLane="1">
        <route edges="O1a aO4"/>
    </vehicle>
    <vehicle id="O1a2_2.3" depart="1594.28" departLane="2">
        <route edges="O1a aO4"/>
    </vehicle>
    <vehicle id="O4a2_0.4" depart="1600.00" departLane="0">
        <route edges="O4a aO1"/>
    </vehicle>
    <vehicle id="O1a2_0.5" depart="1603.64" departLane="0">
        <route edges="O1a aO4"/>
    </vehicle>
    <vehicle id="O1a2_1.4" depart="1614.54" departLane="1">
        <route edges="O1a aO4"/>
    </vehicle>
    <vehicle id="O4a2_1.2" depart="1620.00" departLane="1">
        <route edges="O4a aO1"/>
    </vehicle>
    <vehicle id="O4a2_2.1" depart="1620.00" departLane="2">
        <route edges="O4a aO1"/>
    </vehicle>
    <vehicle id="O1a2_0.6" depart="1636.36" departLane="0">
        <route edges="O1a aO4"/>
    </vehicle>
    <vehicle id="O4a2_0.5" depart="1640.00" departLane="0">
        <route edges="O4a aO3"/>
    </vehicle>
    <vehicle id="O1a2_2.4" depart="1645.71" departLane="2">
        <route edges="O1a aO3"/>
    </vehicle>
    <vehicle id="O1a2_1.5" depart="1658.18" departLane="1">
        <route edges="O1a aO4"/>
    </vehicle>
    <vehicle id="O1a2_0.7" depart="1669.09" departLane="0">
        <route edges="O1a aO4"/>
    </vehicle>
    <vehicle id="O4a2_0.6" depart="1680.00" departLane="0">
        <route edges="O4a aO3"/>
    </vehicle>
    <vehicle id="O1a2_2.5" depart="1697.14" departLane="2">
        <route edges="O1a aO4"/>
    </vehicle>
    <vehicle id="O1a2_0.8" depart="1701.82" departLane="0">
        <route edges="O1a aO4"/>
    </vehicle>
    <vehicle id="O1a2_1.6" depart="1701.82" departLane="1">
        <route edges="O1a aO4"/>
    </vehicle>
    <vehicle id="O4a2_1.3" depart="1710.00" departLane="1">
        <route edges="O4a aO1"/>
    </vehicle>
    <vehicle id="O4a2_0.7" depart="1720.00" departLane="0">
        <route edges="O4a aO1"/>
    </vehicle>
    <vehicle id="O1a2_0.9" depart="1734.54" departLane="0">
        <route edges="O1a aO3"/>
    </vehicle>
    <vehicle id="O1a2_1.7" depart="1745.45" departLane="1">
        <route edges="O1a aO4"/>
    </vehicle>
    <vehicle id="O1a2_2.6" depart="1748.57" departLane="2">
        <route edges="O1a aO3"/>
    </vehicle>
    <vehicle id="O4a2_0.8" depart="1760.00" departLane="0">
        <route edges="O4a aO3"/>
    </vehicle>
    <vehicle id="O1a2_0.10" depart="1767.27" departLane="0">
        <route edges="O1a aO4"/>
    </vehicle>
    <vehicle id="O1a2_1.8" depart="1789.09" departLane="1">
        <route edges="O1a aO3"/>
    </vehicle>
    <vehicle id="O1a2_2.7" depart="1800.00" departLane="2">
        <route edges="O1a aO4"/>
    </vehicle>
    <vehicle id="O1a2_0.11" depart="1800.00" departLane="0">
        <route edges="O1a aO3"/>
    </vehicle>
    <vehicle id="O4a2_0.9" depart="1800.00" departLane="0">
        <route edges="O4a aO1"/>
    </vehicle>
    <vehicle id="O4a2_1.4" depart="1800.00" departLane="1">
        <route edges="O4a aO1"/>
    </vehicle>
    <vehicle id="O4a2_2.2" depart="1800.00" departLane="2">
        <route edges="O4a aO3"/>
    </vehicle>
    <vehicle id="O1a2_0.12" depart="1832.72" departLane="0">
        <route edges="O1a aO3"/>
    </vehicle>
    <vehicle id="O1a2_1.9" depart="1832.72" departLane="1">
        <route edges="O1a aO2"/>
    </vehicle>
    <vehicle id="O4a2_0.10" depart="1840.00" departLane="0">
        <route edges="O4a aO1"/>
    </vehicle>
    <vehicle id="O1a2_2.8" depart="1851.42" departLane="2">
        <route edges="O1a aO3"/>
    </vehicle>
    <vehicle id="O1a2_0.13" depart="1865.45" departLane="0">
        <route edges="O1a aO3"/>
    </vehicle>
    <vehicle id="O1a2_1.10" depart="1876.36" departLane="1">
        <route edges="O1a aO4"/>
    </vehicle>
    <vehicle id="O4a2_0.11" depart="1880.00" departLane="0">
        <route edges="O4a aO1"/>
    </vehicle>
    <vehicle id="O4a2_1.5" depart="1890.00" departLane="1">
        <route edges="O4a aO1"/>
    </vehicle>
    <vehicle id="O1a2_0.14" depart="1898.18" departLane="0">
        <route edges="O1a aO4"/>
    </vehicle>
    <vehicle id="O1a2_2.9" depart="1902.85" departLane="2">
        <route edges="O1a aO4"/>
    </vehicle>
    <vehicle id="O1a2_1.11" depart="1920.00" departLane="1">
        <route edges="O1a aO3"/>
    </vehicle>
    <vehicle id="O4a2_0.12" depart="1920.00" departLane="0">
        <route edges="O4a aO1"/>
    </vehicle>
    <vehicle id="O1a2_0.15" depart="1930.91" departLane="0">
        <route edges="O1a aO4"/>
    </vehicle>
    <vehicle id="O1a2_2.10" depart="1954.28" departLane="2">
        <route edges="O1a aO3"/>
    </vehicle>
    <vehicle id="O4a2_0.13" depart="1960.00" departLane="0">
        <route edges="O4a aO3"/>
    </vehicle>
    <vehicle id="O1a2_0.16" depart="1963.63" departLane="0">
        <route edges="O1a aO4"/>
    </vehicle>
    <vehicle id="O1a2_1.12" depart="1963.63" departLane="1">
        <route edges="O1a aO4"/>
    </vehicle>
    <vehicle id="O4a2_1.6" depart="1980.00" departLane="1">
        <route edges="O4a aO1"/>
    </vehicle>
    <vehicle id="O4a2_2.3" depart="1980.00" departLane="2">
        <route edges="O4a aO1"/>
    </vehicle>
    <vehicle id="O1a2_0.17" depart="1996.36" departLane="0">
        <route edges="O1a aO4"/>
    </vehicle>
    <vehicle id="O4a2_0.14" depart="2000.00" departLane="0">
        <route edges="O4a aO1"/>
    </vehicle>
    <vehicle id="O1a2_2.11" depart="2005.71" departLane="2">
        <route edges="O1a aO4"/>
    </vehicle>
    <vehicle id="O1a2_1.13" depart="2007.27" departLane="1">
        <route edges="O1a aO4"/>
    </vehicle>
    <vehicle id="O1a2_0.18" depart="2029.09" departLane="0">
        <route edges="O1a aO4"/>
    </vehicle>
    <vehicle id="O4a2_0.15" depart="2040.00" departLane="0">
        <route edges="O4a aO1"/>
    </vehicle>
    <vehicle id="O1a2_1.14" depart="2050.90" departLane="1">
        <route edges="O1a aO4"/>
    </vehicle>
    <vehicle id="O1a2_2.12" depart="2057.14" departLane="2">
        <route edges="O1a aO2"/>
    </vehicle>
    <vehicle id="O1a2_0.19" depart="2061.81" departLane="0">
        <route edges="O1a aO4"/>
    </vehicle>
    <vehicle id="O4a2_1.7" depart="2070.00" departLane="1">
        <route edges="O4a aO1"/>
    </vehicle>
    <vehicle id="O4a2_0.16" depart="2080.00" departLane="0">
        <route edges="O4a aO1"/>
    </vehicle>
    <vehicle id="O1a2_0.20" depart="2094.54" departLane="0">
        <route edges="O1a aO4"/>
    </vehicle>
    <vehicle id="O1a2_1.15" depart="2094.54" departLane="1">
        <route edges="O1a aO4"/>
    </vehicle>
    <vehicle id="O1a2_2.13" depart="2108.56" departLane="2">
        <route edges="O1a aO4"/>
    </vehicle>
    <vehicle id="O4a2_0.17" depart="2120.00" departLane="0">
        <route edges="O4a aO1"/>
    </vehicle>
    <vehicle id="O1a2_0.21" depart="2127.27" departLane="0">
        <route edges="O1a aO4"/>
    </vehicle>
    <vehicle id="O1a2_1.16" depart="2138.18" departLane="1">
        <route edges="O1a aO3"/>
    </vehicle>
    <vehicle id="O1a2_2.14" depart="2159.99" departLane="2">
        <route edges="O1a aO3"/>
    </vehicle>
    <vehicle id="O1a2_0.22" depart="2159.99" departLane="0">
        <route edges="O1a aO4"/>
    </vehicle>
    <vehicle id="O4a2_0.18" depart="2160.00" departLane="0">
        <route edges="O4a aO1"/>
    </vehicle>
    <vehicle id="O4a2_1.8" depart="2160.00" departLane="1">
        <route edges="O4a aO1"/>
    </vehicle>
    <vehicle id="O4a2_2.4" depart="2160.00" departLane="2">
        <route edges="O4a aO1"/>
    </vehicle>
    <vehicle id="O1a2_1.17" depart="2181.81" departLane="1">
        <route edges="O1a aO4"/>
    </vehicle>
    <vehicle id="O1a2_0.23" depart="2192.72" departLane="0">
        <route edges="O1a aO4"/>
    </vehicle>
    <vehicle id="O4a2_0.19" depart="2200.00" departLane="0">
        <route edges="O4a aO3"/>
    </vehicle>
    <vehicle id="O1a2_2.15" depart="2211.42" departLane="2">
        <route edges="O1a aO3"/>
    </vehicle>
    <vehicle id="O1a2_0.24" depart="2225.45" departLane="0">
        <route edges="O1a aO4"/>
    </vehicle>
    <vehicle id="O1a2_1.18" depart="2225.45" departLane="1">
        <route edges="O1a aO3"/>
    </vehicle>
    <vehicle id="O4a2_0.20" depart="2240.00" departLane="0">
        <route edges="O4a aO1"/>
    </vehicle>
    <vehicle id="O4a2_1.9" depart="2250.00" departLane="1">
        <route edges="O4a aO1"/>
    </vehicle>
    <vehicle id="O1a2_0.25" depart="2258.18" departLane="0">
        <route edges="O1a aO3"/>
    </vehicle>
    <vehicle id="O1a2_2.16" depart="2262.85" departLane="2">
        <route edges="O1a aO4"/>
    </vehicle>
    <vehicle id="O1a2_1.19" depart="2269.08" departLane="1">
        <route edges="O1a aO3"/>
    </vehicle>
    <vehicle id="O4a2_0.21" depart="2280.00" departLane="0">
        <route edges="O4a aO3"/>
    </vehicle>
    <vehicle id="O1a2_0.26" depart="2290.90" departLane="0">
        <route edges="O1a aO4"/>
    </vehicle>
    <vehicle id="O1a2_1.20" depart="2312.72" departLane="1">
        <route edges="O1a aO3"/>
    </vehicle>
    <vehicle id="O1a2_2.17" depart="2314.28" departLane="2">
        <route edges="O1a aO4"/>
    </vehicle>
    <vehicle id="O4a2_0.22" depart="2320.00" departLane="0">
        <route edges="O4a aO1"/>
    </vehicle>
    <vehicle id="O1a2_0.27" depart="2323.63" departLane="0">
        <route edges="O1a aO2"/>
    </vehicle>
    <vehicle id="O4a2_1.10" depart="2340.00" departLane="1">
        <route edges="O4a aO1"/>
    </vehicle>
    <vehicle id="O4a2_2.5" depart="2340.00" departLane="2">
        <route edges="O4a aO1"/>
    </vehicle>
    <vehicle id="O1a2_0.28" depart="2356.36" departLane="0">
        <route edges="O1a aO2"/>
    </vehicle>
    <vehicle id="O1a2_1.21" depart="2356.36" departLane="1">
        <route edges="O1a aO2"/>
    </vehicle>
    <vehicle id="O4a2_0.23" depart="2360.00" departLane="0">
        <route edges="O4a aO1"/>
    </vehicle>
    <vehicle id="O1a2_2.18" depart="2365.70" departLane="2">
        <route edges="O1a aO4"/>
    </vehicle>
    <vehicle id="O1a2_0.29" depart="2389.08" departLane="0">
        <route edges="O1a aO3"/>
    </vehicle>
    <vehicle id="O1a2_1.22" depart="2399.99" departLane="1">
        <route edges="O1a aO3"/>
    </vehicle>
    <vehicle id="O4a2_0.24" depart="2400.00" departLane="0">
        <route edges="O4a aO1"/>
    </vehicle>
    <vehicle id="O1a2_2.19" depart="2417.13" departLane="2">
        <route edges="O1a aO2"/>
    </vehicle>
    <vehicle id="O1a2_0.30" depart="2421.81" departLane="0">
        <route edges="O1a aO4"/>
    </vehicle>
    <vehicle id="O4a2_1.11" depart="2430.00" departLane="1">
        <route edges="O4a aO1"/>
    </vehicle>
    <vehicle id="O4a2_0.25" depart="2440.00" departLane="0">
        <route edges="O4a aO1"/>
    </vehicle>
    <vehicle id="O1a2_1.23" depart="2443.63" departLane="1">
        <route edges="O1a aO4"/>
    </vehicle>
    <vehicle id="O1a2_0.31" depart="2454.54" departLane="0">
        <route edges="O1a aO4"/>
    </vehicle>
    <vehicle id="O1a2_2.20" depart="2468.56" departLane="2">
        <route edges="O1a aO4"/>
    </vehicle>
    <vehicle id="O4a2_0.26" depart="2480.00" departLane="0">
        <route edges="O4a aO3"/>
    </vehicle>
    <vehicle id="O1a2_0.32" depart="2487.26" departLane="0">