<?xml version="1.0" encoding="UTF-8"?>

<!-- generated on 05/22/15 09:41:45 by SUMO jtrrouter Version 0.22.0
<?xml version="1.0" encoding="UTF-8"?>

<configuration xmlns:xsi="http://www.w3.org/2001/XMLSchema-instance" xsi:noNamespaceSchemaLocation="http://sumo.dlr.de/xsd/jtrrouterConfiguration.xsd">

    <input>
        <net-file value="inter_palmas.net.xml"/>
        <flow-files value="inter_palmas_demand.trips.xml"/>
        <turn-ratio-files value="inter_palmas_demand.turns.xml"/>
    </input>

    <output>
        <output-file value="inter_palmas_demand.rou.xml"/>
    </output>

    <processing>
        <ignore-errors value="true"/>
    </processing>

    <report>
        <verbose value="true"/>
    </report>

</configuration>
-->

<routes xmlns:xsi="http://www.w3.org/2001/XMLSchema-instance" xsi:noNamespaceSchemaLocation="http://sumo.dlr.de/xsd/routes_file.xsd">
    <vType id="taxi"/>
    <vehicle id="-609#01.0" type="taxi" depart="50400.00">
        <route edges="-609#0 -609#1 -609#2"/>
    </vehicle>
    <vType id="carro" guiShape="passenger" color="red"/>
    <vehicle id="306591701.0" type="carro" depart="50400.00">
        <route edges="30659170 33463249#3"/>
    </vehicle>
    <vehicle id="306593751.0" type="taxi" depart="50400.00">
        <route edges="30659375 -609#2"/>
    </vehicle>
    <vType id="bus" guiShape="bus" color="green"/>
    <vehicle id="33463249#01.0" type="bus" depart="50400.00">
        <route edges="33463249#0 33463249#1 33463249#2 33463249#3"/>
    </vehicle>
    <vehicle id="-609#01.1" type="taxi" depart="50407.20">
        <route edges="-609#0 -609#1 -609#2"/>
    </vehicle>
    <vehicle id="33463249#01.1" type="bus" depart="50407.20">
        <route edges="33463249#0 33463249#1 33463249#2 33463249#3"/>
    </vehicle>
    <vehicle id="-609#01.2" type="taxi" depart="50414.40">
        <route edges="-609#0 -609#1 -609#2"/>
    </vehicle>
    <vehicle id="33463249#01.2" type="bus" depart="50414.40">
        <route edges="33463249#0 33463249#1 33463249#2 33463249#3"/>
    </vehicle>
    <vehicle id="306591701.1" type="carro" depart="50418.00">
        <route edges="30659170 33463249#3"/>
    </vehicle>
    <vehicle id="306593751.1" type="taxi" depart="50418.00">
        <route edges="30659375 -609#2"/>
    </vehicle>
    <vehicle id="-609#01.3" type="taxi" depart="50421.60">
        <route edges="-609#0 -609#1 -609#2"/>
    </vehicle>
    <vehicle id="33463249#01.3" type="bus" depart="50421.60">
        <route edges="33463249#0 30659403"/>
    </vehicle>
    <vehicle id="-609#01.4" type="taxi" depart="50428.80">
        <route edges="-609#0 -609#1 -609#2"/>
    </vehicle>
    <vehicle id="33463249#01.4" type="bus" depart="50428.80">
        <route edges="33463249#0 33463249#1 33463249#2 33463249#3"/>
    </vehicle>
    <vehicle id="-609#01.5" type="taxi" depart="50436.00">
        <route edges="-609#0 -609#1 -609#2"/>
    </vehicle>
    <vehicle id="306591701.2" type="carro" depart="50436.00">
        <route edges="30659170 33463249#3"/>
    </vehicle>
    <vehicle id="306593751.2" type="taxi" depart="50436.00">
        <route edges="30659375 -609#2"/>
    </vehicle>
    <vehicle id="33463249#01.5" type="bus" depart="50436.00">
        <route edges="33463249#0 33463249#1 33463249#2 33463249#3"/>
    </vehicle>
    <vehicle id="-609#01.6" type="taxi" depart="50443.20">
        <route edges="-609#0 -609#1 -609#2"/>
    </vehicle>
    <vehicle id="33463249#01.6" type="bus" depart="50443.20">
        <route edges="33463249#0 33463249#1 33463249#2 33463249#3"/>
    </vehicle>
    <vehicle id="-609#01.7" type="taxi" depart="50450.40">
        <route edges="-609#0 -609#1 -609#2"/>
    </vehicle>
    <vehicle id="33463249#01.7" type="bus" depart="50450.40">
        <route edges="33463249#0 33463249#1 33463249#2 33463249#3"/>
    </vehicle>
    <vehicle id="306591701.3" type="carro" depart="50454.00">
        <route edges="30659170 33463249#3"/>
    </vehicle>
    <vehicle id="306593751.3" type="taxi" depart="50454.00">
        <route edges="30659375 -609#2"/>
    </vehicle>
    <vehicle id="-609#01.8" type="taxi" depart="50457.60">
        <route edges="-609#0 -609#1 -609#2"/>
    </vehicle>
    <vehicle id="33463249#01.8" type="bus" depart="50457.60">
        <route edges="33463249#0 33463249#1 33463249#2 33463249#3"/>
    </vehicle>
    <vehicle id="-609#01.9" type="taxi" depart="50464.80">
        <route edges="-609#0 -609#1 -609#2"/>
    </vehicle>
    <vehicle id="33463249#01.9" type="bus" depart="50464.80">
        <route edges="33463249#0 30659403"/>
    </vehicle>
    <vehicle id="-609#01.10" type="taxi" depart="50472.00">
        <route edges="-609#0 -609#1 -609#2"/>
    </vehicle>
    <vehicle id="306591701.4" type="carro" depart="50472.00">
        <route edges="30659170 33463249#3"/>
    </vehicle>
    <vehicle id="306593751.4" type="taxi" depart="50472.00">
        <route edges="30659375 -609#2"/>
    </vehicle>
    <vehicle id="33463249#01.10" type="bus" depart="50472.00">
        <route edges="33463249#0 33463249#1 33463249#2 33463249#3"/>
    </vehicle>
    <vehicle id="-609#01.11" type="taxi" depart="50479.20">
        <route edges="-609#0 -609#1 -609#2"/>
    </vehicle>
    <vehicle id="33463249#01.11" type="bus" depart="50479.20">
        <route edges="33463249#0 33463249#1 33463249#2 33463249#3"/>
    </vehicle>
    <vehicle id="-609#01.12" type="taxi" depart="50486.40">
        <route edges="-609#0 -609#1 -609#2"/>
    </vehicle>
    <vehicle id="33463249#01.12" type="bus" depart="50486.40">
        <route edges="33463249#0 30659403"/>
    </vehicle>
    <vehicle id="306591701.5" type="carro" depart="50490.00">
        <route edges="30659170 33463249#3"/>
    </vehicle>
    <vehicle id="306593751.5" type="taxi" depart="50490.00">
        <route edges="30659375 -609#2"/>
    </vehicle>
    <vehicle id="-609#01.13" type="taxi" depart="50493.60">
        <route edges="-609#0 -609#1 -609#2"/>
    </vehicle>
    <vehicle id="33463249#01.13" type="bus" depart="50493.60">
        <route edges="33463249#0 33463249#1 33463249#2 33463249#3"/>
    </vehicle>
    <vehicle id="-609#01.14" type="taxi" depart="50500.80">
        <route edges="-609#0 -609#1 -609#2"/>
    </vehicle>
    <vehicle id="33463249#01.14" type="bus" depart="50500.80">
        <route edges="33463249#0 33463249#1 33463249#2 33463249#3"/>
    </vehicle>
    <vehicle id="-609#01.15" type="taxi" depart="50508.00">
        <route edges="-609#0 -609#1 -609#2"/>
    </vehicle>
    <vehicle id="306591701.6" type="carro" depart="50508.00">
        <route edges="30659170 33463249#3"/>
    </vehicle>
    <vehicle id="306593751.6" type="taxi" depart="50508.00">
        <route edges="30659375 -609#2"/>
    </vehicle>
    <vehicle id="33463249#01.15" type="bus" depart="50508.00">
        <route edges="33463249#0 33463249#1 33463249#2 33463249#3"/>
    </vehicle>
    <vehicle id="-609#01.16" type="taxi" depart="50515.20">
        <route edges="-609#0 -609#1 -609#2"/>
    </vehicle>
    <vehicle id="33463249#01.16" type="bus" depart="50515.20">
        <route edges="33463249#0 33463249#1 33463249#2 33463249#3"/>
    </vehicle>
    <vehicle id="-609#01.17" type="taxi" depart="50522.40">
        <route edges="-609#0 -609#1 -609#2"/>
    </vehicle>
    <vehicle id="33463249#01.17" type="bus" depart="50522.40">
        <route edges="33463249#0 33463249#1 33463249#2 33463249#3"/>
    </vehicle>
    <vehicle id="306591701.7" type="carro" depart="50526.00">
        <route edges="30659170 33463249#3"/>
    </vehicle>
    <vehicle id="306593751.7" type="taxi" depart="50526.00">
        <route edges="30659375 -609#2"/>
    </vehicle>
    <vehicle id="-609#01.18" type="taxi" depart="50529.60">
        <route edges="-609#0 -609#1 -609#2"/>
    </vehicle>
    <vehicle id="33463249#01.18" type="bus" depart="50529.60">
        <route edges="33463249#0 33463249#1 33463249#2 33463249#3"/>
    </vehicle>
    <vehicle id="-609#01.19" type="taxi" depart="50536.80">
        <route edges="-609#0 -609#1 -609#2"/>
    </vehicle>
    <vehicle id="33463249#01.19" type="bus" depart="50536.80">
        <route edges="33463249#0 33463249#1 33463249#2 33463249#3"/>
    </vehicle>
    <vehicle id="-609#01.20" type="taxi" depart="50544.00">
        <route edges="-609#0 -609#1 -609#2"/>
    </vehicle>
    <vehicle id="306591701.8" type="carro" depart="50544.00">
        <route edges="30659170 33463249#3"/>
    </vehicle>
    <vehicle id="306593751.8" type="taxi" depart="50544.00">
        <route edges="30659375 -609#2"/>
    </vehicle>
    <vehicle id="33463249#01.20" type="bus" depart="50544.00">
        <route edges="33463249#0 30659403"/>
    </vehicle>
    <vehicle id="-609#01.21" type="taxi" depart="50551.20">
        <route edges="-609#0 -609#1 -609#2"/>
    </vehicle>
    <vehicle id="33463249#01.21" type="bus" depart="50551.20">
        <route edges="33463249#0 33463249#1 33463249#2 33463249#3"/>
    </vehicle>
    <vehicle id="-609#01.22" type="taxi" depart="50558.40">
        <route edges="-609#0 -609#1 -609#2"/>
    </vehicle>
    <vehicle id="33463249#01.22" type="bus" depart="50558.40">
        <route edges="33463249#0 30659403"/>
    </vehicle>
    <vehicle id="306591701.9" type="carro" depart="50562.00">
        <route edges="30659170 33463249#3"/>
    </vehicle>
    <vehicle id="306593751.9" type="taxi" depart="50562.00">
        <route edges="30659375 -609#2"/>
    </vehicle>
    <vehicle id="-609#01.23" type="taxi" depart="50565.60">
        <route edges="-609#0 -609#1 -609#2"/>
    </vehicle>
    <vehicle id="33463249#01.23" type="bus" depart="50565.60">
        <route edges="33463249#0 33463249#1 33463249#2 33463249#3"/>
    </vehicle>
    <vehicle id="-609#01.24" type="taxi" depart="50572.80">
        <route edges="-609#0 -609#1 -609#2"/>
    </vehicle>
    <vehicle id="33463249#01.24" type="bus" depart="50572.80">
        <route edges="33463249#0 33463249#1 33463249#2 33463249#3"/>
    </vehicle>
    <vehicle id="-609#01.25" type="taxi" depart="50580.00">
        <route edges="-609#0 -609#1 -609#2"/>
    </vehicle>
    <vehicle id="306591701.10" type="carro" depart="50580.00">
        <route edges="30659170 33463249#3"/>
    </vehicle>
    <vehicle id="306593751.10" type="taxi" depart="50580.00">
        <route edges="30659375 -609#2"/>
    </vehicle>
    <vehicle id="33463249#01.25" type="bus" depart="50580.00">
        <route edges="33463249#0 33463249#1 33463249#2 33463249#3"/>
    </vehicle>
    <vehicle id="-609#01.26" type="taxi" depart="50587.20">
        <route edges="-609#0 -609#1 -609#2"/>
    </vehicle>
    <vehicle id="33463249#01.26" type="bus" depart="50587.20">
        <route edges="33463249#0 33463249#1 33463249#2 33463249#3"/>
    </vehicle>
    <vehicle id="-609#01.27" type="taxi" depart="50594.40">
        <route edges="-609#0 -609#1 -609#2"/>
    </vehicle>
    <vehicle id="33463249#01.27" type="bus" depart="50594.40">
        <route edges="33463249#0 33463249#1 33463249#2 33463249#3"/>
    </vehicle>
    <vehicle id="306591701.11" type="carro" depart="50598.00">
        <route edges="30659170 33463249#3"/>
    </vehicle>
    <vehicle id="306593751.11" type="taxi" depart="50598.00">
        <route edges="30659375 -609#2"/>
    </vehicle>
    <vehicle id="-609#01.28" type="taxi" depart="50601.60">
        <route edges="-609#0 -609#1 -609#2"/>
    </vehicle>
    <vehicle id="33463249#01.28" type="bus" depart="50601.60">
        <route edges="33463249#0 33463249#1 33463249#2 33463249#3"/>
    </vehicle>
    <vehicle id="-609#01.29" type="taxi" depart="50608.80">
        <route edges="-609#0 -609#1 -609#2"/>
    </vehicle>
    <vehicle id="33463249#01.29" type="bus" depart="50608.80">
        <route edges="33463249#0 33463249#1 33463249#2 33463249#3"/>
    </vehicle>
    <vehicle id="-609#01.30" type="taxi" depart="50616.00">
        <route edges="-609#0 -609#1 -609#2"/>
    </vehicle>
    <vehicle id="306591701.12" type="carro" depart="50616.00">
        <route edges="30659170 33463249#3"/>
    </vehicle>
    <vehicle id="306593751.12" type="taxi" depart="50616.00">
        <route edges="30659375 -609#2"/>
    </vehicle>
    <vehicle id="33463249#01.30" type="bus" depart="50616.00">
        <route edges="33463249#0 33463249#1 33463249#2 33463249#3"/>
    </vehicle>
    <vehicle id="-609#01.31" type="taxi" depart="50623.20">
        <route edges="-609#0 -609#1 -609#2"/>
    </vehicle>
    <vehicle id="33463249#01.31" type="bus" depart="50623.20">
        <route edges="33463249#0 33463249#1 33463249#2 33463249#3"/>
    </vehicle>
    <vehicle id="-609#01.32" type="taxi" depart="50630.40">
        <route edges="-609#0 -609#1 -609#2"/>
    </vehicle>
    <vehicle id="33463249#01.32" type="bus" depart="50630.40">
        <route edges="33463249#0 30659403"/>
    </vehicle>
    <vehicle id="306591701.13" type="carro" depart="50634.00">
        <route edges="30659170 33463249#3"/>
    </vehicle>
    <vehicle id="306593751.13" type="taxi" depart="50634.00">
        <route edges="30659375 -609#2"/>
    </vehicle>
    <vehicle id="-609#01.33" type="taxi" depart="50637.60">
        <route edges="-609#0 -609#1 -609#2"/>
    </vehicle>
    <vehicle id="33463249#01.33" type="bus" depart="50637.60">
        <route edges="33463249#0 30659403"/>
    </vehicle>
    <vehicle id="-609#01.34" type="taxi" depart="50644.80">
        <route edges="-609#0 -609#1 -609#2"/>
    </vehicle>
    <vehicle id="33463249#01.34" type="bus" depart="50644.80">
        <route edges="33463249#0 33463249#1 33463249#2 33463249#3"/>
    </vehicle>
    <vehicle id="-609#01.35" type="taxi" depart="50652.00">
        <route edges="-609#0 -609#1 -609#2"/>
    </vehicle>
    <vehicle id="306591701.14" type="carro" depart="50652.00">
        <route edges="30659170 33463249#3"/>
    </vehicle>
    <vehicle id="306593751.14" type="taxi" depart="50652.00">
        <route edges="30659375 -609#2"/>
    </vehicle>
    <vehicle id="33463249#01.35" type="bus" depart="50652.00">
        <route edges="33463249#0 33463249#1 33463249#2 33463249#3"/>
    </vehicle>
    <vehicle id="-609#01.36" type="taxi" depart="50659.20">
        <route edges="-609#0 -609#1 -609#2"/>
    </vehicle>
    <vehicle id="33463249#01.36" type="bus" depart="50659.20">
        <route edges="33463249#0 33463249#1 33463249#2 33463249#3"/>
    </vehicle>
    <vehicle id="-609#01.37" type="taxi" depart="50666.40">
        <route edges="-609#0 -609#1 -609#2"/>
    </vehicle>
    <vehicle id="33463249#01.37" type="bus" depart="50666.40">
        <route edges="33463249#0 33463249#1 33463249#2 33463249#3"/>
    </vehicle>
    <vehicle id="306591701.15" type="carro" depart="50670.00">
        <route edges="30659170 33463249#3"/>
    </vehicle>
    <vehicle id="306593751.15" type="taxi" depart="50670.00">
        <route edges="30659375 -609#2"/>
    </vehicle>
    <vehicle id="-609#01.38" type="taxi" depart="50673.60">
        <route edges="-609#0 -609#1 -609#2"/>
    </vehicle>
    <vehicle id="33463249#01.38" type="bus" depart="50673.60">
        <route edges="33463249#0 33463249#1 33463249#2 33463249#3"/>
    </vehicle>
    <vehicle id="-609#01.39" type="taxi" depart="50680.80">
        <route edges="-609#0 -609#1 -609#2"/>
    </vehicle>
    <vehicle id="33463249#01.39" type="bus" depart="50680.80">
        <route edges="33463249#0 33463249#1 33463249#2 33463249#3"/>
    </vehicle>
    <vehicle id="-609#01.40" type="taxi" depart="50688.00">
        <route edges="-609#0 -609#1 -609#2"/>
    </vehicle>
    <vehicle id="306591701.16" type="carro" depart="50688.00">
        <route edges="30659170 33463249#3"/>
    </vehicle>
    <vehicle id="306593751.16" type="taxi" depart="50688.00">
        <route edges="30659375 -609#2"/>
    </vehicle>
    <vehicle id="33463249#01.40" type="bus" depart="50688.00">
        <route edges="33463249#0 33463249#1 33463249#2 33463249#3"/>
    </vehicle>
    <vehicle id="-609#01.41" type="taxi" depart="50695.20">
        <route edges="-609#0 -609#1 -609#2"/>
    </vehicle>
    <vehicle id="33463249#01.41" type="bus" depart="50695.20">
        <route edges="33463249#0 33463249#1 33463249#2 33463249#3"/>
    </vehicle>
    <vehicle id="-609#01.42" type="taxi" depart="50702.40">
        <route edges="-609#0 -609#1 -609#2"/>
    </vehicle>
    <vehicle id="33463249#01.42" type="bus" depart="50702.40">
        <route edges="33463249#0 33463249#1 33463249#2 33463249#3"/>
    </vehicle>
    <vehicle id="306591701.17" type="carro" depart="50706.00">
        <route edges="30659170 33463249#3"/>
    </vehicle>
    <vehicle id="306593751.17" type="taxi" depart="50706.00">
        <route edges="30659375 -609#2"/>
    </vehicle>
    <vehicle id="-609#01.43" type="taxi" depart="50709.60">
        <route edges="-609#0 -609#1 -609#2"/>
    </vehicle>
    <vehicle id="33463249#01.43" type="bus" depart="50709.60">
        <route edges="33463249#0 33463249#1 33463249#2 33463249#3"/>
    </vehicle>
    <vehicle id="-609#01.44" type="taxi" depart="50716.80">
        <route edges="-609#0 -609#1 -609#2"/>
    </vehicle>
    <vehicle id="33463249#01.44" type="bus" depart="50716.80">
        <route edges="33463249#0 33463249#1 33463249#2 33463249#3"/>
    </vehicle>
    <vehicle id="-609#01.45" type="taxi" depart="50724.00">
        <route edges="-609#0 -609#1 -609#2"/>
    </vehicle>
    <vehicle id="306591701.18" type="carro" depart="50724.00">
        <route edges="30659170 33463249#3"/>
    </vehicle>
    <vehicle id="306593751.18" type="taxi" depart="50724.00">
        <route edges="30659375 -609#2"/>
    </vehicle>
    <vehicle id="33463249#01.45" type="bus" depart="50724.00">
        <route edges="33463249#0 33463249#1 33463249#2 33463249#3"/>
    </vehicle>
    <vehicle id="-609#01.46" type="taxi" depart="50731.20">
        <route edges="-609#0 -609#1 -609#2"/>
    </vehicle>
    <vehicle id="33463249#01.46" type="bus" depart="50731.20">
        <route edges="33463249#0 33463249#1 33463249#2 33463249#3"/>
    </vehicle>
    <vehicle id="-609#01.47" type="taxi" depart="50738.40">
        <route edges="-609#0 -609#1 -609#2"/>
    </vehicle>
    <vehicle id="33463249#01.47" type="bus" depart="50738.40">
        <route edges="33463249#0 33463249#1 33463249#2 33463249#3"/>
    </vehicle>
    <vehicle id="306591701.19" type="carro" depart="50742.00">
        <route edges="30659170 33463249#3"/>
    </vehicle>
    <vehicle id="306593751.19" type="taxi" depart="50742.00">
        <route edges="30659375 -609#2"/>
    </vehicle>
    <vehicle id="-609#01.48" type="taxi" depart="50745.60">
        <route edges="-609#0 -609#1 -609#2"/>
    </vehicle>
    <vehicle id="33463249#01.48" type="bus" depart="50745.60">
        <route edges="33463249#0 33463249#1 33463249#2 33463249#3"/>
    </vehicle>
    <vehicle id="-609#01.49" type="taxi" depart="50752.80">
        <route edges="-609#0 -609#1 -609#2"/>
    </vehicle>
    <vehicle id="33463249#01.49" type="bus" depart="50752.80">
        <route edges="33463249#0 33463249#1 33463249#2 33463249#3"/>
    </vehicle>
    <vehicle id="-609#01.50" type="taxi" depart="50760.00">
        <route edges="-609#0 -609#1 -609#2"/>
    </vehicle>
    <vehicle id="306591701.20" type="carro" depart="50760.00">
        <route edges="30659170 33463249#3"/>
    </vehicle>
    <vehicle id="306593751.20" type="taxi" depart="50760.00">
        <route edges="30659375 -609#2"/>
    </vehicle>
    <vehicle id="33463249#01.50" type="bus" depart="50760.00">
        <route edges="33463249#0 33463249#1 33463249#2 33463249#3"/>
    </vehicle>
    <vehicle id="-609#01.51" type="taxi" depart="50767.20">
        <route edges="-609#0 -609#1 -609#2"/>
    </vehicle>
    <vehicle id="33463249#01.51" type="bus" depart="50767.20">
        <route edges="33463249#0 33463249#1 33463249#2 33463249#3"/>
    </vehicle>
    <vehicle id="-609#01.52" type="taxi" depart="50774.40">
        <route edges="-609#0 -609#1 -609#2"/>
    </vehicle>
    <vehicle id="33463249#01.52" type="bus" depart="50774.40">
        <route edges="33463249#0 33463249#1 33463249#2 33463249#3"/>
    </vehicle>
    <vehicle id="306591701.21" type="carro" depart="50778.00">
        <route edges="30659170 33463249#3"/>
    </vehicle>
    <vehicle id="306593751.21" type="taxi" depart="50778.00">
        <route edges="30659375 -609#2"/>
    </vehicle>
    <vehicle id="-609#01.53" type="taxi" depart="50781.60">
        <route edges="-609#0 -609#1 -609#2"/>
    </vehicle>
    <vehicle id="33463249#01.53" type="bus" depart="50781.60">
        <route edges="33463249#0 30659403"/>
    </vehicle>
    <vehicle id="-609#01.54" type="taxi" depart="50788.80">
        <route edges="-609#0 -609#1 -609#2"/>
    </vehicle>
    <vehicle id="33463249#01.54" type="bus" depart="50788.80">
        <route edges="33463249#0 33463249#1 33463249#2 33463249#3"/>
    </vehicle>
    <vehicle id="-609#01.55" type="taxi" depart="50796.00">
        <route edges="-609#0 -609#1 -609#2"/>
    </vehicle>
    <vehicle id="306591701.22" type="carro" depart="50796.00">
        <route edges="30659170 33463249#3"/>
    </vehicle>
    <vehicle id="306593751.22" type="taxi" depart="50796.00">
        <route edges="30659375 -609#2"/>
    </vehicle>
    <vehicle id="33463249#01.55" type="bus" depart="50796.00">
        <route edges="33463249#0 33463249#1 33463249#2 33463249#3"/>
    </vehicle>
    <vehicle id="-609#01.56" type="taxi" depart="50803.20">
        <route edges="-609#0 -609#1 -609#2"/>
    </vehicle>
    <vehicle id="33463249#01.56" type="bus" depart="50803.20">
        <route edges="33463249#0 33463249#1 33463249#2 33463249#3"/>
    </vehicle>
    <vehicle id="-609#01.57" type="taxi" depart="50810.40">
        <route edges="-609#0 -609#1 -609#2"/>
    </vehicle>
    <vehicle id="33463249#01.57" type="bus" depart="50810.40">
        <route edges="33463249#0 33463249#1 33463249#2 33463249#3"/>
    </vehicle>
    <vehicle id="306591701.23" type="carro" depart="50814.00">
        <route edges="30659170 33463249#3"/>
    </vehicle>
    <vehicle id="306593751.23" type="taxi" depart="50814.00">
        <route edges="30659375 -609#2"/>
    </vehicle>
    <vehicle id="-609#01.58" type="taxi" depart="50817.60">
        <route edges="-609#0 -609#1 -609#2"/>
    </vehicle>
    <vehicle id="33463249#01.58" type="bus" depart="50817.60">
        <route edges="33463249#0 30659403"/>
    </vehicle>
    <vehicle id="-609#01.59" type="taxi" depart="50824.80">
        <route edges="-609#0 -609#1 -609#2"/>
    </vehicle>
    <vehicle id="33463249#01.59" type="bus" depart="50824.80">
        <route edges="33463249#0 33463249#1 33463249#2 33463249#3"/>
    </vehicle>
    <vehicle id="-609#01.60" type="taxi" depart="50832.00">
        <route edges="-609#0 -609#1 -609#2"/>
    </vehicle>
    <vehicle id="306591701.24" type="carro" depart="50832.00">
        <route edges="30659170 33463249#3"/>
    </vehicle>
    <vehicle id="306593751.24" type="taxi" depart="50832.00">
        <route edges="30659375 -609#2"/>
    </vehicle>
    <vehicle id="33463249#01.60" type="bus" depart="50832.00">
        <route edges="33463249#0 33463249#1 33463249#2 33463249#3"/>
    </vehicle>
    <vehicle id="-609#01.61" type="taxi" depart="50839.20">
        <route edges="-609#0 -609#1 -609#2"/>
    </vehicle>
    <vehicle id="33463249#01.61" type="bus" depart="50839.20">
        <route edges="33463249#0 30659403"/>
    </vehicle>
    <vehicle id="-609#01.62" type="taxi" depart="50846.40">
        <route edges="-609#0 -609#1 -609#2"/>
    </vehicle>
    <vehicle id="33463249#01.62" type="bus" depart="50846.40">
        <route edges="33463249#0 30659403"/>
    </vehicle>
    <vehicle id="306591701.25" type="carro" depart="50850.00">
        <route edges="30659170 33463249#3"/>
    </vehicle>
    <vehicle id="306593751.25" type="taxi" depart="50850.00">
        <route edges="30659375 -609#2"/>
    </vehicle>
    <vehicle id="-609#01.63" type="taxi" depart="50853.60">
        <route edges="-609#0 -609#1 -609#2"/>
    </vehicle>
    <vehicle id="33463249#01.63" type="bus" depart="50853.60">
        <route edges="33463249#0 33463249#1 33463249#2 33463249#3"/>
    </vehicle>
    <vehicle id="-609#01.64" type="taxi" depart="50860.80">
        <route edges="-609#0 -609#1 -609#2"/>
    </vehicle>
    <vehicle id="33463249#01.64" type="bus" depart="50860.80">
        <route edges="33463249#0 33463249#1 33463249#2 33463249#3"/>
    </vehicle>
    <vehicle id="-609#01.65" type="taxi" depart="50868.00">
        <route edges="-609#0 -609#1 -609#2"/>
    </vehicle>
    <vehicle id="306591701.26" type="carro" depart="50868.00">
        <route edges="30659170 33463249#3"/>
    </vehicle>
    <vehicle id="306593751.26" type="taxi" depart="50868.00">
        <route edges="30659375 -609#2"/>
    </vehicle>
    <vehicle id="33463249#01.65" type="bus" depart="50868.00">
        <route edges="33463249#0 33463249#1 33463249#2 33463249#3"/>
    </vehicle>
    <vehicle id="-609#01.66" type="taxi" depart="50875.20">
        <route edges="-609#0 -609#1 -609#2"/>
    </vehicle>
    <vehicle id="33463249#01.66" type="bus" depart="50875.20">
        <route edges="33463249#0 33463249#1 33463249#2 33463249#3"/>
    </vehicle>
    <vehicle id="-609#01.67" type="taxi" depart="50882.40">
        <route edges="-609#0 -609#1 -609#2"/>
    </vehicle>
    <vehicle id="33463249#01.67" type="bus" depart="50882.40">
        <route edges="33463249#0 33463249#1 33463249#2 33463249#3"/>
    </vehicle>
    <vehicle id="306591701.27" type="carro" depart="50886.00">
        <route edges="30659170 33463249#3"/>
    </vehicle>
    <vehicle id="306593751.27" type="taxi" depart="50886.00">
        <route edges="30659375 -609#2"/>
    </vehicle>
    <vehicle id="-609#01.68" type="taxi" depart="50889.60">
        <route edges="-609#0 -609#1 -609#2"/>
    </vehicle>
    <vehicle id="33463249#01.68" type="bus" depart="50889.60">
        <route edges="33463249#0 33463249#1 33463249#2 33463249#3"/>
    </vehicle>
    <vehicle id="-609#01.69" type="taxi" depart="50896.80">
        <route edges="-609#0 -609#1 -609#2"/>
    </vehicle>
    <vehicle id="33463249#01.69" type="bus" depart="50896.80">
        <route edges="33463249#0 33463249#1 33463249#2 33463249#3"/>
    </vehicle>
    <vehicle id="-609#01.70" type="taxi" depart="50904.00">
        <route edges="-609#0 -609#1 -609#2"/>
    </vehicle>
    <vehicle id="306591701.28" type="carro" depart="50904.00">
        <route edges="30659170 33463249#3"/>
    </vehicle>
    <vehicle id="306593751.28" type="taxi" depart="50904.00">
        <route edges="30659375 -609#2"/>
    </vehicle>
    <vehicle id="33463249#01.70" type="bus" depart="50904.00">
        <route edges="33463249#0 30659403"/>
    </vehicle>
    <vehicle id="-609#01.71" type="taxi" depart="50911.20">
        <route edges="-609#0 -609#1 -609#2"/>
    </vehicle>
    <vehicle id="33463249#01.71" type="bus" depart="50911.20">
        <route edges="33463249#0 33463249#1 33463249#2 33463249#3"/>
    </vehicle>
    <vehicle id="-609#01.72" type="taxi" depart="50918.40">
        <route edges="-609#0 -609#1 -609#2"/>
    </vehicle>
    <vehicle id="33463249#01.72" type="bus" depart="50918.40">
        <route edges="33463249#0 33463249#1 33463249#2 33463249#3"/>
    </vehicle>
    <vehicle id="306591701.29" type="carro" depart="50922.00">
        <route edges="30659170 33463249#3"/>
    </vehicle>
    <vehicle id="306593751.29" type="taxi" depart="50922.00">
        <route edges="30659375 -609#2"/>
    </vehicle>
    <vehicle id="-609#01.73" type="taxi" depart="50925.60">
        <route edges="-609#0 -609#1 -609#2"/>
    </vehicle>
    <vehicle id="33463249#01.73" type="bus" depart="50925.60">
        <route edges="33463249#0 33463249#1 33463249#2 33463249#3"/>
    </vehicle>
    <vehicle id="-609#01.74" type="taxi" depart="50932.80">
        <route edges="-609#0 -609#1 -609#2"/>
    </vehicle>
    <vehicle id="33463249#01.74" type="bus" depart="50932.80">
        <route edges="33463249#0 33463249#1 33463249#2 33463249#3"/>
    </vehicle>
    <vehicle id="-609#01.75" type="taxi" depart="50940.00">
        <route edges="-609#0 -609#1 -609#2"/>
    </vehicle>
    <vehicle id="306591701.30" type="carro" depart="50940.00">
        <route edges="30659170 33463249#3"/>
    </vehicle>
    <vehicle id="306593751.30" type="taxi" depart="50940.00">
        <route edges="30659375 -609#2"/>
    </vehicle>
    <vehicle id="33463249#01.75" type="bus" depart="50940.00">
        <route edges="33463249#0 33463249#1 33463249#2 33463249#3"/>
    </vehicle>
    <vehicle id="-609#01.76" type="taxi" depart="50947.20">
        <route edges="-609#0 -609#1 -609#2"/>
    </vehicle>
    <vehicle id="33463249#01.76" type="bus" depart="50947.20">
        <route edges="33463249#0 33463249#1 33463249#2 33463249#3"/>
    </vehicle>
    <vehicle id="-609#01.77" type="taxi" depart="50954.40">
        <route edges="-609#0 -609#1 -609#2"/>
    </vehicle>
    <vehicle id="33463249#01.77" type="bus" depart="50954.40">
        <route edges="33463249#0 33463249#1 33463249#2 33463249#3"/>
    </vehicle>
    <vehicle id="306591701.31" type="carro" depart="50958.00">
        <route edges="30659170 33463249#3"/>
    </vehicle>
    <vehicle id="306593751.31" type="taxi" depart="50958.00">
        <route edges="30659375 -609#2"/>
    </vehicle>