<?xml version="1.0" encoding="UTF-8"?>

<!-- generated on 04/29/15 16:35:56 by SUMO netconvert Version dev-SVN-r16802
<?xml version="1.0" encoding="UTF-8"?>

<configuration xmlns:xsi="http://www.w3.org/2001/XMLSchema-instance" xsi:noNamespaceSchemaLocation="http://sumo-sim.org/xsd/netconvertConfiguration.xsd">

    <input>
        <sumo-net-file value="inter_palmas.net.xml"/>
    </input>

    <output>
        <plain-output-prefix value="inter_palmas"/>
    </output>

    <processing>
        <no-turnarounds value="true"/>
        <offset.disable-normalization value="true"/>
    </processing>

</configuration>
-->

<tlLogics version="0.13" xmlns:xsi="http://www.w3.org/2001/XMLSchema-instance" xsi:noNamespaceSchemaLocation="http://sumo-sim.org/xsd/tllogic_file.xsd">
    <tlLogic id="3218348564" type="static" programID="0" offset="0">
        <phase duration="31" state="GG"/>
        <phase duration="5" state="yy"/>
    </tlLogic>
    <tlLogic id="339061350" type="static" programID="0" offset="0">
        <phase duration="31" state="GG"/>
        <phase duration="5" state="yy"/>
    </tlLogic>

    <connection from="-609#0" to="-609#1" fromLane="0" toLane="0" tl="3218348564" linkIndex="0"/>
    <connection from="-609#0" to="-609#1" fromLane="1" toLane="1" tl="3218348564" linkIndex="1"/>
    <connection from="33463249#1" to="33463249#2" fromLane="0" toLane="0" tl="339061350" linkIndex="0"/>
    <connection from="33463249#1" to="33463249#2" fromLane="1" toLane="1" tl="339061350" linkIndex="1"/>
</tlLogics>
