<?xml version='1.0' encoding='UTF-8'?>
<!-- generated on 03/26/15 09:10:59 by SUMO netconvert Version 0.22.0
<?xml version="1.0" encoding="UTF-8"?>

<configuration xmlns:xsi="http://www.w3.org/2001/XMLSchema-instance" xsi:noNamespaceSchemaLocation="http://sumo.dlr.de/xsd/netconvertConfiguration.xsd">

    <input>
        <sumo-net-file value="C:/Users/AndresFelipe/Documents/SUMO/inter_palmas/inter_palmas.net.xml"/>
        <node-files value="C:/Users/AndresFelipe/Documents/SUMO/inter_palmas/patch_node.nod.xml"/>
        <tllogic-files value="C:/Users/AndresFelipe/Documents/SUMO/inter_palmas/patch_tls.tll.xml"/>
    </input>

    <output>
        <output-file value="C:/Users/AndresFelipe/Documents/SUMO/inter_palmas/inter_palmas.net.xml"/>
    </output>

    <processing>
        <no-turnarounds value="true"/>
        <offset.disable-normalization value="true"/>
    </processing>

</configuration>
-->
<net xsi:noNamespaceSchemaLocation="http://sumo.dlr.de/xsd/net_file.xsd" version="0.13" xmlns:xsi="http://www.w3.org/2001/XMLSchema-instance">
    <location netOffset="-436954.42,-689250.27" origBoundary="-75.569917,6.235311,-75.568126,6.237731" convBoundary="0.00,0.00,197.87,267.77" projParameter="+proj=utm +zone=18 +ellps=WGS84 +datum=WGS84 +units=m +no_defs"/>
    <edge function="internal" id=":3218348564_0">
        <lane shape="86.56,165.08 86.48,165.12" speed="16.67" id=":3218348564_0_0" index="0" length="0.10"/>
        <lane shape="84.96,162.20 85.04,162.16" speed="16.67" id=":3218348564_0_1" index="1" length="0.10"/>
    </edge>
    <edge function="internal" id=":339060251_0">
        <lane shape="158.89,64.53 161.25,62.53 163.06,61.13 164.58,59.47 166.06,56.65" speed="22.23" id=":339060251_0_0" index="0" length="10.82"/>
    </edge>
    <edge function="internal" id=":339060251_1">
        <lane shape="162.00,66.64 163.20,63.67 164.02,61.64 164.84,59.61 166.06,56.65" speed="16.67" id=":339060251_1_0" index="0" length="10.78"/>
        <lane shape="165.05,67.89 166.25,64.93 167.07,62.90 167.89,60.87 169.11,57.91" speed="16.67" id=":339060251_1_1" index="1" length="10.78"/>
    </edge>
    <edge function="internal" id=":339061350_0">
        <lane shape="80.28,151.58 80.57,151.42" speed="16.67" id=":339061350_0_0" index="0" length="0.22"/>
        <lane shape="82.01,154.39 82.11,154.34" speed="16.67" id=":339061350_0_1" index="1" length="0.22"/>
    </edge>
    <edge function="internal" id=":339061351_0">
        <lane shape="54.09,167.58 55.03,166.65 55.75,165.02 56.26,162.68 56.55,159.63" speed="19.45" id=":339061351_0_0" index="0" length="9.33"/>
        <lane shape="54.09,167.58 56.51,165.96 58.28,164.12 59.39,162.07 59.84,159.81" speed="19.45" id=":339061351_0_1" index="1" length="9.33"/>
    </edge>
    <edge function="internal" id=":339061351_2">
        <lane shape="54.09,167.58 56.92,165.99 58.84,164.86 60.72,163.69 63.48,161.97" speed="16.67" id=":339061351_2_0" index="0" length="11.02"/>
        <lane shape="55.68,170.47 58.56,168.86 60.50,167.71 62.41,166.52 65.21,164.78" speed="16.67" id=":339061351_2_1" index="1" length="11.02"/>
    </edge>
    <edge function="internal" id=":339061699_0">
        <lane shape="52.18,187.01 50.43,186.16 48.89,185.75 47.55,185.78 46.41,186.25" speed="22.23" id=":339061699_0_0" index="0" length="6.11"/>
    </edge>
    <edge function="internal" id=":339061699_1">
        <lane shape="52.33,182.81 46.41,186.25" speed="16.67" id=":339061699_1_0" index="0" length="6.97"/>
        <lane shape="50.72,179.93 44.58,183.50" speed="16.67" id=":339061699_1_1" index="1" length="6.97"/>
    </edge>
    <edge spreadType="center" shape="197.87,0.00 185.57,37.73 175.15,68.87 163.79,94.36 158.11,107.56 142.93,129.28 120.16,145.33 106.88,151.96 85.76,163.64" to="3218348564" id="-609#0" type="highway.trunk" priority="11" from="339061690">
        <lane shape="199.44,0.51 187.14,38.24 176.71,69.39 165.30,95.03 159.56,108.37 144.12,130.46 121.11,146.68 107.62,153.44 86.56,165.08" speed="16.67" id="-609#0_0" index="0" length="208.13"/>
        <lane shape="196.30,-0.51 184.00,37.22 173.59,68.35 162.28,93.69 156.66,106.75 141.74,128.10 119.21,143.98 106.14,150.48 84.96,162.20" speed="16.67" id="-609#0_1" index="1" length="208.13"/>
    </edge>
    <edge spreadType="center" shape="85.76,163.64 67.03,172.75 46.90,183.94" to="339061699" id="-609#1" type="highway.trunk" priority="11" from="3218348564">
        <lane shape="86.48,165.12 67.75,174.23 52.33,182.81" speed="16.67" id="-609#1_0" index="0" length="38.57"/>
        <lane shape="85.04,162.16 66.31,171.27 50.72,179.93" speed="16.67" id="-609#1_1" index="1" length="38.57"/>
    </edge>
    <edge spreadType="center" shape="46.90,183.94 35.21,191.70 22.47,203.70 10.10,218.08" to="339059944" id="-609#2" type="highway.trunk" priority="11" from="339061699">
        <lane shape="46.41,186.25 36.12,193.07 23.60,204.90 11.35,219.16" speed="16.67" id="-609#2_0" index="0" length="48.82"/>
        <lane shape="44.58,183.50 34.30,190.33 21.34,202.50 8.85,217.00" speed="16.67" id="-609#2_1" index="1" length="48.82"/>
    </edge>
    <edge spreadType="center" shape="49.23,253.90 43.42,239.34 42.20,225.93 44.78,215.99 54.92,206.89 83.03,197.36 94.59,187.92 97.25,181.73 96.33,151.96 100.18,138.40 105.80,132.79 128.63,109.19 141.37,90.90 152.92,70.25 168.33,55.49" to="339060251" id="30659170" type="highway.secondary" priority="7" from="339060265">
        <lane shape="49.23,253.90 43.42,239.34 42.20,225.93 44.78,215.99 54.92,206.89 83.03,197.36 94.59,187.92 97.25,181.73 96.33,151.96 100.18,138.40 105.80,132.79 128.63,109.19 141.37,90.90 152.92,70.25 158.89,64.53" speed="27.78" id="30659170_0" index="0" length="243.26"/>
    </edge>
    <edge spreadType="center" shape="54.78,267.77 46.59,259.65 35.43,240.86 31.88,232.38 32.04,221.86 41.73,207.61 48.99,199.20 53.04,193.99 52.41,187.15 46.90,183.94" to="339061699" id="30659375" type="highway.secondary" priority="7" from="339062566">
        <lane shape="54.78,267.77 46.59,259.65 35.43,240.86 31.88,232.38 32.04,221.86 41.73,207.61 48.99,199.20 53.04,193.99 52.41,187.15 52.18,187.01" speed="27.78" id="30659375_0" index="0" length="95.18"/>
    </edge>
    <edge spreadType="center" shape="57.78,167.43 58.46,154.84 59.38,130.31 60.29,96.35 60.28,83.15" to="339062833" id="30659403" type="highway.tertiary" priority="6" from="339061351">
        <lane shape="56.55,159.63 56.81,154.75 57.73,130.25 58.64,96.31 58.63,83.15" speed="22.22" id="30659403_0" index="0" length="76.61"/>
        <lane shape="59.84,159.81 60.11,154.93 61.03,130.37 61.94,96.39 61.93,83.15" speed="22.22" id="30659403_1" index="1" length="76.61"/>
    </edge>
    <edge spreadType="center" shape="0.00,185.42 13.86,185.07 29.24,181.03 45.42,174.23 57.78,167.43" to="339061351" id="33463249#0" type="highway.trunk" priority="11" from="339059941">
        <lane shape="-0.04,183.77 13.63,183.43 28.82,179.43 44.78,172.71 54.09,167.58" speed="16.67" id="33463249#0_0" index="0" length="58.12"/>
        <lane shape="0.04,187.07 14.09,186.71 29.66,182.63 46.06,175.75 55.68,170.47" speed="16.67" id="33463249#0_1" index="1" length="58.12"/>
    </edge>
    <edge spreadType="center" to="339061350" id="33463249#1" type="highway.trunk" priority="11" from="339061351">
        <lane shape="63.48,161.97 80.28,151.58" speed="16.67" id="33463249#1_0" index="0" length="19.75"/>
        <lane shape="65.21,164.78 82.01,154.39" speed="16.67" id="33463249#1_1" index="1" length="19.75"/>
    </edge>
    <edge spreadType="center" shape="81.24,152.93 97.37,144.42 117.31,134.97 126.79,128.35 136.28,118.91 143.86,108.53 154.29,89.65 159.16,77.96 168.33,55.49" to="339060251" id="33463249#2" type="highway.trunk" priority="11" from="339061350">
        <lane shape="80.57,151.42 96.60,142.96 116.60,133.48 125.85,127.00 135.12,117.74 142.53,107.56 152.85,88.85 157.64,77.33 162.00,66.64" speed="16.67" id="33463249#2_0" index="0" length="123.78"/>
        <lane shape="82.11,154.34 98.14,145.88 118.02,136.46 127.73,129.70 137.44,120.08 145.19,109.50 155.73,90.45 160.68,78.59 165.05,67.89" speed="16.67" id="33463249#2_1" index="1" length="123.78"/>
    </edge>
    <edge spreadType="center" shape="168.33,55.49 171.85,47.04 186.47,0.01" to="339061412" id="33463249#3" type="highway.trunk" priority="11" from="339060251">
        <lane shape="166.06,56.65 170.33,46.41 184.89,-0.48" speed="16.67" id="33463249#3_0" index="0" length="60.34"/>
        <lane shape="169.11,57.91 173.37,47.67 188.05,0.50" speed="16.67" id="33463249#3_1" index="1" length="60.34"/>
    </edge>
    <tlLogic offset="0" programID="0" id="palmas_0" type="static">
        <phase duration="30" state="GG"/>
        <phase duration="2" state="yy"/>
        <phase duration="10" state="rr"/>
    </tlLogic>
    <tlLogic offset="0" programID="0" id="palmas_1" type="static">
        <phase duration="30" state="GG"/>
        <phase duration="2" state="yy"/>
        <phase duration="10" state="rr"/>
    </tlLogic>
    <junction shape="87.41,166.44 84.26,160.75 87.10,166.60" incLanes="-609#0_0 -609#0_1" intLanes=":3218348564_0_0 :3218348564_0_1" id="3218348564" type="traffic_light" x="85.76" y="163.64">
        <request foes="00" index="0" response="00" cont="0"/>
        <request foes="00" index="1" response="00" cont="0"/>
    </junction>
    <junction shape="0.08,188.67 -0.08,182.17" incLanes="" intLanes="" id="339059941" type="unregulated" x="0.00" y="185.42"/>
    <junction shape="12.56,220.20 7.64,215.96" incLanes="-609#2_0 -609#2_1" intLanes="" id="339059944" type="unregulated" x="10.10" y="218.08"/>
    <junction shape="170.58,58.53 164.58,56.03 157.79,63.37 160.00,65.68 160.52,66.04 166.53,68.49" incLanes="30659170_0 33463249#2_0 33463249#2_1" intLanes=":339060251_0_0 :339060251_1_0 :339060251_1_1" id="339060251" type="priority" x="168.33" y="55.49">
        <request foes="110" index="0" response="110" cont="0"/>
        <request foes="001" index="1" response="000" cont="0"/>
        <request foes="001" index="2" response="000" cont="0"/>
    </junction>
    <junction shape="50.72,253.31 47.74,254.49" incLanes="" intLanes="" id="339060265" type="unregulated" x="49.23" y="253.90"/>
    <junction shape="82.85,155.75 79.82,150.00 79.44,150.22 82.85,155.75" incLanes="33463249#1_0 33463249#1_1" intLanes=":339061350_0_0 :339061350_0_1" id="339061350" type="traffic_light" x="81.24" y="152.93">
        <request foes="00" index="0" response="00" cont="0"/>
        <request foes="00" index="1" response="00" cont="0"/>
    </junction>
    <junction shape="66.05,166.14 62.64,160.61 61.44,159.90 54.95,159.55 53.32,166.18 56.45,171.87" incLanes="33463249#0_0 33463249#0_1" intLanes=":339061351_0_0 :339061351_0_1 :339061351_2_0 :339061351_2_1" id="339061351" type="priority" x="57.78" y="167.43">
        <request foes="0000" index="0" response="0000" cont="0"/>
        <request foes="0000" index="1" response="0000" cont="0"/>
        <request foes="0000" index="2" response="0000" cont="0"/>
        <request foes="0000" index="3" response="0000" cont="0"/>
    </junction>
    <junction shape="183.37,-0.95 189.57,0.97" incLanes="33463249#3_0 33463249#3_1" intLanes="" id="339061412" type="unregulated" x="186.47" y="0.01"/>
    <junction shape="194.78,-1.01 200.96,1.01" incLanes="" intLanes="" id="339061690" type="unregulated" x="197.87" y="0.00"/>
    <junction shape="50.95,188.79 53.09,185.69 53.10,184.21 49.95,178.53 43.70,182.16 47.29,187.58" incLanes="30659375_0 -609#1_0 -609#1_1" intLanes=":339061699_0_0 :339061699_1_0 :339061699_1_1" id="339061699" type="priority" x="46.90" y="183.94">
        <request foes="110" index="0" response="110" cont="0"/>
        <request foes="001" index="1" response="000" cont="0"/>
        <request foes="001" index="2" response="000" cont="0"/>
    </junction>
    <junction shape="55.91,266.63 53.65,268.91" incLanes="" intLanes="" id="339062566" type="unregulated" x="54.78" y="267.77"/>
    <junction shape="57.03,83.15 63.53,83.15" incLanes="30659403_0 30659403_1" intLanes="" id="339062833" type="unregulated" x="60.28" y="83.15"/>
    <connection tl="palmas_1" to="-609#1" dir="s" state="o" linkIndex="0" fromLane="0" toLane="0" from="-609#0" via=":3218348564_0_0"/>
    <connection tl="palmas_1" to="-609#1" dir="s" state="o" linkIndex="1" fromLane="1" toLane="1" from="-609#0" via=":3218348564_0_1"/>
    <connection to="-609#2" dir="s" state="M" fromLane="0" toLane="0" from="-609#1" via=":339061699_1_0"/>
    <connection to="-609#2" dir="s" state="M" fromLane="1" toLane="1" from="-609#1" via=":339061699_1_1"/>
    <connection to="33463249#3" dir="s" state="m" fromLane="0" toLane="0" from="30659170" via=":339060251_0_0"/>
    <connection to="-609#2" dir="r" state="m" fromLane="0" toLane="0" from="30659375" via=":339061699_0_0"/>
    <connection to="30659403" dir="r" state="M" fromLane="0" toLane="0" from="33463249#0" via=":339061351_0_0"/>
    <connection to="30659403" dir="r" state="M" fromLane="0" toLane="1" from="33463249#0" via=":339061351_0_1"/>
    <connection to="33463249#1" dir="s" state="M" fromLane="0" toLane="0" from="33463249#0" via=":339061351_2_0"/>
    <connection to="33463249#1" dir="s" state="M" fromLane="1" toLane="1" from="33463249#0" via=":339061351_2_1"/>
    <connection tl="palmas_0" to="33463249#2" dir="s" state="o" linkIndex="0" fromLane="0" toLane="0" from="33463249#1" via=":339061350_0_0"/>
    <connection tl="palmas_0" to="33463249#2" dir="s" state="o" linkIndex="1" fromLane="1" toLane="1" from="33463249#1" via=":339061350_0_1"/>
    <connection to="33463249#3" dir="s" state="M" fromLane="0" toLane="0" from="33463249#2" via=":339060251_1_0"/>
    <connection to="33463249#3" dir="s" state="M" fromLane="1" toLane="1" from="33463249#2" via=":339060251_1_1"/>
    <connection to="-609#1" dir="s" state="M" fromLane="0" toLane="0" from=":3218348564_0"/>
    <connection to="-609#1" dir="s" state="M" fromLane="1" toLane="1" from=":3218348564_0"/>
    <connection to="33463249#3" dir="s" state="M" fromLane="0" toLane="0" from=":339060251_0"/>
    <connection to="33463249#3" dir="s" state="M" fromLane="0" toLane="0" from=":339060251_1"/>
    <connection to="33463249#3" dir="s" state="M" fromLane="1" toLane="1" from=":339060251_1"/>
    <connection to="33463249#2" dir="s" state="M" fromLane="0" toLane="0" from=":339061350_0"/>
    <connection to="33463249#2" dir="s" state="M" fromLane="1" toLane="1" from=":339061350_0"/>
    <connection to="30659403" dir="s" state="M" fromLane="0" toLane="0" from=":339061351_0"/>
    <connection to="30659403" dir="s" state="M" fromLane="1" toLane="1" from=":339061351_0"/>
    <connection to="33463249#1" dir="s" state="M" fromLane="0" toLane="0" from=":339061351_2"/>
    <connection to="33463249#1" dir="s" state="M" fromLane="1" toLane="1" from=":339061351_2"/>
    <connection to="-609#2" dir="s" state="M" fromLane="0" toLane="0" from=":339061699_0"/>
    <connection to="-609#2" dir="s" state="M" fromLane="0" toLane="0" from=":339061699_1"/>
    <connection to="-609#2" dir="s" state="M" fromLane="1" toLane="1" from=":339061699_1"/>
</net>
